
  Mrv1902 04231922272D          

 42 45  0  0  0  0            999 V2000
    4.4820   -3.2083    0.0000 C   0  0  0  0  0  0  0  0  0  0  0  0
    3.6938   -3.4629    0.0000 C   0  0  0  0  0  0  0  0  0  0  0  0
    3.0765   -2.9161    0.0000 C   0  0  0  0  0  0  0  0  0  0  0  0
    3.2486   -2.1053    0.0000 C   0  0  0  0  0  0  0  0  0  0  0  0
    4.0367   -1.8507    0.0000 C   0  0  0  0  0  0  0  0  0  0  0  0
    2.2979   -3.1716    0.0000 C   0  0  0  0  0  0  0  0  0  0  0  0
    1.6807   -2.6248    0.0000 O   0  0  0  0  0  0  0  0  0  0  0  0
    0.8924   -2.8793    0.0000 C   0  0  0  0  0  0  0  0  0  0  0  0
    0.7301   -3.6912    0.0000 O   0  0  0  0  0  0  0  0  0  0  0  0
    0.2753   -2.3325    0.0000 C   0  0  2  0  0  0  0  0  0  0  0  0
    0.4473   -1.5216    0.0000 C   0  0  0  0  0  0  0  0  0  0  0  0
   -0.5033   -2.5880    0.0000 N   0  0  0  0  0  0  0  0  0  0  0  0
   -1.1204   -2.0412    0.0000 P   0  0  0  0  0  0  0  0  0  0  0  0
   -1.8887   -1.7388    0.0000 O   0  0  0  0  0  0  0  0  0  0  0  0
   -0.9581   -1.2294    0.0000 O   0  0  0  0  0  0  0  0  0  0  0  0
   -1.5753   -0.6826    0.0000 C   0  0  0  0  0  0  0  0  0  0  0  0
   -1.4033    0.1281    0.0000 C   0  0  2  0  0  0  0  0  0  0  0  0
   -0.6548    0.4639    0.0000 C   0  0  2  0  0  0  0  0  0  0  0  0
   -0.7421    1.2828    0.0000 C   0  0  2  0  0  0  0  0  0  0  0  0
   -1.5435    1.4538    0.0000 C   0  0  2  0  0  0  0  0  0  0  0  0
   -1.9659    0.7366    0.0000 O   0  0  0  0  0  0  0  0  0  0  0  0
   -1.2877    2.2365    0.0000 C   0  0  0  0  0  0  0  0  0  0  0  0
   -1.0320    3.0192    0.0000 N   0  0  0  0  0  0  0  0  0  0  0  0
   -2.2991    1.7838    0.0000 C   0  0  0  0  0  0  0  0  0  0  0  0
   -3.0166    1.3773    0.0000 C   0  0  0  0  0  0  0  0  0  0  0  0
   -3.6243    1.9230    0.0000 C   0  0  0  0  0  0  0  0  0  0  0  0
   -3.2933    2.6882    0.0000 C   0  0  0  0  0  0  0  0  0  0  0  0
   -2.4734    2.6020    0.0000 N   0  0  0  0  0  0  0  0  0  0  0  0
   -1.9798    3.2635    0.0000 N   0  0  0  0  0  0  0  0  0  0  0  0
   -2.3241    4.0225    0.0000 C   0  0  0  0  0  0  0  0  0  0  0  0
   -3.1440    4.1087    0.0000 N   0  0  0  0  0  0  0  0  0  0  0  0
   -3.6290    3.4368    0.0000 C   0  0  0  0  0  0  0  0  0  0  0  0
   -4.4490    3.5230    0.0000 N   0  0  0  0  0  0  0  0  0  0  0  0
   -0.1252    1.8348    0.0000 O   0  0  0  0  0  0  0  0  0  0  0  0
    0.0632    0.0511    0.0000 O   0  0  0  0  0  0  0  0  0  0  0  0
   -1.5609   -2.7467    0.0000 O   0  0  0  0  0  0  0  0  0  0  0  0
   -2.3772   -2.7188    0.0000 C   0  0  0  0  0  0  0  0  0  0  0  0
   -2.8177   -3.4243    0.0000 C   0  0  0  0  0  0  0  0  0  0  0  0
   -3.6436   -3.3953    0.0000 C   0  0  0  0  0  0  0  0  0  0  0  0
   -4.0300   -2.6703    0.0000 C   0  0  0  0  0  0  0  0  0  0  0  0
   -3.5991   -1.9638    0.0000 C   0  0  0  0  0  0  0  0  0  0  0  0
   -2.7732   -1.9928    0.0000 C   0  0  0  0  0  0  0  0  0  0  0  0
  1  2  1  0  0  0  0
  2  3  1  0  0  0  0
  3  4  1  0  0  0  0
  3  6  1  0  0  0  0
  4  5  1  0  0  0  0
  6  7  1  0  0  0  0
  7  8  1  0  0  0  0
  8  9  2  0  0  0  0
  8 10  1  0  0  0  0
 10 11  1  1  0  0  0
 10 12  1  0  0  0  0
 13 12  1  6  0  0  0
 13 14  2  0  0  0  0
 13 15  1  0  0  0  0
 13 36  1  0  0  0  0
 15 16  1  0  0  0  0
 17 16  1  1  0  0  0
 17 18  1  0  0  0  0
 17 21  1  0  0  0  0
 18 19  1  0  0  0  0
 18 35  1  6  0  0  0
 19 20  1  0  0  0  0
 19 34  1  6  0  0  0
 20 21  1  0  0  0  0
 20 22  1  6  0  0  0
 20 24  1  0  0  0  0
 22 23  3  0  0  0  0
 24 25  2  0  0  0  0
 24 28  1  0  0  0  0
 25 26  1  0  0  0  0
 26 27  2  0  0  0  0
 27 28  1  0  0  0  0
 27 32  1  0  0  0  0
 28 29  1  0  0  0  0
 29 30  2  0  0  0  0
 30 31  1  0  0  0  0
 31 32  2  0  0  0  0
 32 33  1  0  0  0  0
 36 37  1  0  0  0  0
 37 38  2  0  0  0  0
 37 42  1  0  0  0  0
 38 39  1  0  0  0  0
 39 40  2  0  0  0  0
 40 41  1  0  0  0  0
 41 42  2  0  0  0  0
M  END
> <DATABASE_ID>
DB14761

> <DATABASE_NAME>
drugbank

> <SMILES>
CCC(CC)COC(=O)[C@H](C)NP(=O)(OC[C@H]1O[C@](C#N)([C@H](O)[C@@H]1O)C1=CC=C2N1N=CN=C2N)OC1=CC=CC=C1

> <INCHI_IDENTIFIER>
InChI=1S/C27H35N6O8P/c1-4-18(5-2)13-38-26(36)17(3)32-42(37,41-19-9-7-6-8-10-19)39-14-21-23(34)24(35)27(15-28,40-21)22-12-11-20-25(29)30-16-31-33(20)22/h6-12,16-18,21,23-24,34-35H,4-5,13-14H2,1-3H3,(H,32,37)(H2,29,30,31)/t17-,21+,23+,24+,27-,42-/m0/s1

> <INCHI_KEY>
RWWYLEGWBNMMLJ-YSOARWBDSA-N

> <FORMULA>
C27H35N6O8P

> <MOLECULAR_WEIGHT>
602.585

> <EXACT_MASS>
602.225399109

> <JCHEM_ACCEPTOR_COUNT>
9

> <JCHEM_ATOM_COUNT>
77

> <JCHEM_AVERAGE_POLARIZABILITY>
59.26847365136093

> <JCHEM_BIOAVAILABILITY>
0

> <JCHEM_DONOR_COUNT>
4

> <JCHEM_FORMAL_CHARGE>
0

> <JCHEM_GHOSE_FILTER>
0

> <JCHEM_IUPAC>
2-ethylbutyl (2S)-2-[({[(2R,3S,4R,5R)-5-{4-aminopyrrolo[2,1-f][1,2,4]triazin-7-yl}-5-cyano-3,4-dihydroxyoxolan-2-yl]methoxy}(phenoxy)phosphoryl)amino]propanoate

> <ALOGPS_LOGP>
2.20

> <JCHEM_LOGP>
2.007206492000001

> <ALOGPS_LOGS>
-3.25

> <JCHEM_MDDR_LIKE_RULE>
1

> <JCHEM_NUMBER_OF_RINGS>
4

> <JCHEM_PHYSIOLOGICAL_CHARGE>
0

> <JCHEM_PKA>
12.140645473906021

> <JCHEM_PKA_STRONGEST_ACIDIC>
10.234209703292144

> <JCHEM_PKA_STRONGEST_BASIC>
0.6479240250511116

> <JCHEM_POLAR_SURFACE_AREA>
203.54999999999998

> <JCHEM_REFRACTIVITY>
161.80870000000002

> <JCHEM_ROTATABLE_BOND_COUNT>
14

> <JCHEM_RULE_OF_FIVE>
0

> <ALOGPS_SOLUBILITY>
3.39e-01 g/l

> <JCHEM_TRADITIONAL_IUPAC>
narlaprevir

> <JCHEM_VEBER_RULE>
0

> <DRUGBANK_ID>
DB14761

> <DRUG_GROUPS>
experimental

> <GENERIC_NAME>
Remdesivir

> <SYNONYMS>
Remdesivir; Remd√©sivir; Remdesivirum

$$$$
