
     RDKit          2D

 63 67  0  0  0  0  0  0  0  0999 V2000
    7.5000   -5.1962    0.0000 C   0  0  0  0  0  0  0  0  0  0  0  0
    6.0000   -5.1962    0.0000 C   0  0  0  0  0  0  0  0  0  0  0  0
    5.2500   -3.8971    0.0000 C   0  0  0  0  0  0  0  0  0  0  0  0
    5.2500   -6.4952    0.0000 C   0  0  0  0  0  0  0  0  0  0  0  0
    3.7500   -6.4952    0.0000 N   0  0  0  0  0  0  0  0  0  0  0  0
    3.0000   -5.1962    0.0000 C   0  0  0  0  0  0  0  0  0  0  0  0
    1.5000   -5.1962    0.0000 C   0  0  0  0  0  0  0  0  0  0  0  0
    0.7500   -6.4952    0.0000 O   0  0  0  0  0  0  0  0  0  0  0  0
    0.7500   -3.8971    0.0000 C   0  0  0  0  0  0  0  0  0  0  0  0
   -0.7500   -3.8971    0.0000 C   0  0  0  0  0  0  0  0  0  0  0  0
   -1.5000   -2.5981    0.0000 C   0  0  0  0  0  0  0  0  0  0  0  0
   -3.0000   -2.5981    0.0000 C   0  0  0  0  0  0  0  0  0  0  0  0
   -3.7500   -1.2990    0.0000 C   0  0  0  0  0  0  0  0  0  0  0  0
   -3.0000    0.0000    0.0000 C   0  0  0  0  0  0  0  0  0  0  0  0
   -1.5000    0.0000    0.0000 C   0  0  0  0  0  0  0  0  0  0  0  0
   -0.7500   -1.2990    0.0000 C   0  0  0  0  0  0  0  0  0  0  0  0
    1.5000   -2.5981    0.0000 N   0  0  0  0  0  0  0  0  0  0  0  0
    3.0000   -2.5981    0.0000 C   0  0  0  0  0  0  0  0  0  0  0  0
    3.7500   -3.8971    0.0000 O   0  0  0  0  0  0  0  0  0  0  0  0
    3.7500   -1.2990    0.0000 C   0  0  0  0  0  0  0  0  0  0  0  0
    3.0000    0.0000    0.0000 C   0  0  0  0  0  0  0  0  0  0  0  0
    3.7500    1.2990    0.0000 C   0  0  0  0  0  0  0  0  0  0  0  0
    5.2500    1.2990    0.0000 C   0  0  0  0  0  0  0  0  0  0  0  0
    6.0000   -0.0000    0.0000 C   0  0  0  0  0  0  0  0  0  0  0  0
    5.2500   -1.2990    0.0000 C   0  0  0  0  0  0  0  0  0  0  0  0
    3.0000   -7.7942    0.0000 C   0  0  0  0  0  0  0  0  0  0  0  0
    1.5000   -7.7942    0.0000 O   0  0  0  0  0  0  0  0  0  0  0  0
    3.7500   -9.0933    0.0000 C   0  0  0  0  0  0  0  0  0  0  0  0
    5.2500   -9.0933    0.0000 C   0  0  0  0  0  0  0  0  0  0  0  0
    6.0000  -10.3923    0.0000 C   0  0  0  0  0  0  0  0  0  0  0  0
    5.2500  -11.6913    0.0000 C   0  0  0  0  0  0  0  0  0  0  0  0
    6.0000  -12.9904    0.0000 C   0  0  0  0  0  0  0  0  0  0  0  0
    7.5000  -12.9904    0.0000 C   0  0  0  0  0  0  0  0  0  0  0  0
    8.2500  -11.6913    0.0000 C   0  0  0  0  0  0  0  0  0  0  0  0
    7.5000  -10.3923    0.0000 C   0  0  0  0  0  0  0  0  0  0  0  0
    3.0000  -10.3923    0.0000 N   0  0  0  0  0  0  0  0  0  0  0  0
    1.5000  -10.3923    0.0000 C   0  0  0  0  0  0  0  0  0  0  0  0
    0.7500   -9.0933    0.0000 O   0  0  0  0  0  0  0  0  0  0  0  0
    0.7500  -11.6913    0.0000 C   0  0  0  0  0  0  0  0  0  0  0  0
   -0.7500  -11.6913    0.0000 C   0  0  0  0  0  0  0  0  0  0  0  0
   -1.5000  -12.9904    0.0000 C   0  0  0  0  0  0  0  0  0  0  0  0
   -0.7500  -14.2894    0.0000 C   0  0  0  0  0  0  0  0  0  0  0  0
   -1.5000  -15.5885    0.0000 C   0  0  0  0  0  0  0  0  0  0  0  0
   -3.0000  -15.5885    0.0000 C   0  0  0  0  0  0  0  0  0  0  0  0
   -3.7500  -14.2894    0.0000 C   0  0  0  0  0  0  0  0  0  0  0  0
   -3.0000  -12.9904    0.0000 C   0  0  0  0  0  0  0  0  0  0  0  0
    1.5000  -12.9904    0.0000 N   0  0  0  0  0  0  0  0  0  0  0  0
    3.0000  -12.9904    0.0000 C   0  0  0  0  0  0  0  0  0  0  0  0
    3.7500  -11.6913    0.0000 O   0  0  0  0  0  0  0  0  0  0  0  0
    3.7500  -14.2894    0.0000 C   0  0  0  0  0  0  0  0  0  0  0  0
    5.2500  -14.2894    0.0000 C   0  0  0  0  0  0  0  0  0  0  0  0
    6.0000  -15.5885    0.0000 C   0  0  0  0  0  0  0  0  0  0  0  0
    7.5000  -15.5885    0.0000 N   0  0  0  0  0  0  0  0  0  0  0  0
    5.2500  -16.8875    0.0000 O   0  0  0  0  0  0  0  0  0  0  0  0
    3.0000  -15.5885    0.0000 N   0  0  0  0  0  0  0  0  0  0  0  0
    1.5000  -15.5885    0.0000 C   0  0  0  0  0  0  0  0  0  0  0  0
    0.7500  -14.2894    0.0000 O   0  0  0  0  0  0  0  0  0  0  0  0
    0.7500  -16.8875    0.0000 C   0  0  0  0  0  0  0  0  0  0  0  0
    1.5000  -18.1865    0.0000 C   0  0  0  0  0  0  0  0  0  0  0  0
    0.7500  -19.4856    0.0000 C   0  0  0  0  0  0  0  0  0  0  0  0
   -0.7500  -19.4856    0.0000 C   0  0  0  0  0  0  0  0  0  0  0  0
   -1.5000  -18.1865    0.0000 C   0  0  0  0  0  0  0  0  0  0  0  0
   -0.7500  -16.8875    0.0000 C   0  0  0  0  0  0  0  0  0  0  0  0
  1  2  1  0
  2  3  1  0
  2  4  1  0
  4  5  1  0
  5  6  1  0
  6  7  1  0
  7  8  1  0
  7  9  1  0
  9 10  1  0
 10 11  1  0
 11 12  2  0
 12 13  1  0
 13 14  2  0
 14 15  1  0
 15 16  2  0
  9 17  1  0
 17 18  1  0
 18 19  2  0
 18 20  1  0
 20 21  2  0
 21 22  1  0
 22 23  2  0
 23 24  1  0
 24 25  2  0
  5 26  1  0
 26 27  2  0
 26 28  1  0
 28 29  1  0
 29 30  1  0
 30 31  2  0
 31 32  1  0
 32 33  2  0
 33 34  1  0
 34 35  2  0
 28 36  1  0
 36 37  1  0
 37 38  2  0
 37 39  1  0
 39 40  1  0
 40 41  1  0
 41 42  2  0
 42 43  1  0
 43 44  2  0
 44 45  1  0
 45 46  2  0
 39 47  1  0
 47 48  1  0
 48 49  2  0
 48 50  1  0
 50 51  1  0
 51 52  1  0
 52 53  1  0
 52 54  2  0
 50 55  1  0
 55 56  1  0
 56 57  2  0
 56 58  1  0
 58 59  2  0
 59 60  1  0
 60 61  2  0
 61 62  1  0
 62 63  2  0
 16 11  1  0
 25 20  1  0
 35 30  1  0
 46 41  1  0
 63 58  1  0
M  END
>  <Title>  (1) 
idAAAAgen4

$$$$

     RDKit          2D

 60 65  0  0  0  0  0  0  0  0999 V2000
   -1.1640    4.3606    0.0000 C   0  0  0  0  0  0  0  0  0  0  0  0
   -1.1640    5.8606    0.0000 C   0  0  0  0  0  0  0  0  0  0  0  0
   -1.2973    6.9460    0.0000 C   0  0  0  0  0  0  0  0  0  0  0  0
   -2.6640    5.8606    0.0000 C   0  0  0  0  0  0  0  0  0  0  0  0
    0.3360    5.8606    0.0000 C   0  0  0  0  0  0  0  0  0  0  0  0
    1.0860    7.1597    0.0000 C   0  0  0  0  0  0  0  0  0  0  0  0
    0.3360    8.4587    0.0000 N   0  0  0  0  0  0  0  0  0  0  0  0
   -1.1640    8.4587    0.0000 C   0  0  0  0  0  0  0  0  0  0  0  0
   -1.8221    7.5854    0.0000 O   0  0  0  0  0  0  0  0  0  0  0  0
   -1.9140    9.7578    0.0000 C   0  0  0  0  0  0  0  0  0  0  0  0
   -1.1640   11.0568    0.0000 C   0  0  0  0  0  0  0  0  0  0  0  0
    0.3360   11.0568    0.0000 C   0  0  0  0  0  0  0  0  0  0  0  0
    1.0860    9.7578    0.0000 C   0  0  0  0  0  0  0  0  0  0  0  0
    2.5860    9.7578    0.0000 C   0  0  0  0  0  0  0  0  0  0  0  0
    3.3360   11.0568    0.0000 C   0  0  0  0  0  0  0  0  0  0  0  0
    2.5860   12.3558    0.0000 C   0  0  0  0  0  0  0  0  0  0  0  0
    1.0860   12.3558    0.0000 C   0  0  0  0  0  0  0  0  0  0  0  0
   -3.4140    9.7578    0.0000 N   0  0  0  0  0  0  0  0  0  0  0  0
   -4.1640    8.4587    0.0000 C   0  0  0  0  0  0  0  0  0  0  0  0
   -3.4140    7.1597    0.0000 O   0  0  0  0  0  0  0  0  0  0  0  0
   -5.6640    8.4587    0.0000 C   0  0  0  0  0  0  0  0  0  0  0  0
   -6.4140    9.7578    0.0000 C   0  0  0  0  0  0  0  0  0  0  0  0
   -5.6640   11.0568    0.0000 C   0  0  0  0  0  0  0  0  0  0  0  0
   -4.1640   11.0568    0.0000 C   0  0  0  0  0  0  0  0  0  0  0  0
   -3.4140   12.3558    0.0000 C   0  0  0  0  0  0  0  0  0  0  0  0
   -4.1640   13.6549    0.0000 C   0  0  0  0  0  0  0  0  0  0  0  0
   -5.6640   13.6549    0.0000 C   0  0  0  0  0  0  0  0  0  0  0  0
   -6.4140   12.3558    0.0000 C   0  0  0  0  0  0  0  0  0  0  0  0
   -6.4140    7.1597    0.0000 N   0  0  0  0  0  0  0  0  0  0  0  0
   -5.6640    5.8606    0.0000 C   0  0  0  0  0  0  0  0  0  0  0  0
   -4.1640    5.8606    0.0000 O   0  0  0  0  0  0  0  0  0  0  0  0
   -6.4140    4.5616    0.0000 C   0  0  0  0  0  0  0  0  0  0  0  0
   -7.9140    4.5616    0.0000 C   0  0  0  0  0  0  0  0  0  0  0  0
   -8.6640    5.8606    0.0000 C   0  0  0  0  0  0  0  0  0  0  0  0
   -7.9140    7.1597    0.0000 C   0  0  0  0  0  0  0  0  0  0  0  0
   -8.6640    8.4587    0.0000 C   0  0  0  0  0  0  0  0  0  0  0  0
  -10.1640    8.4587    0.0000 C   0  0  0  0  0  0  0  0  0  0  0  0
  -10.9140    7.1597    0.0000 C   0  0  0  0  0  0  0  0  0  0  0  0
  -10.1640    5.8606    0.0000 C   0  0  0  0  0  0  0  0  0  0  0  0
   -5.6640    3.2626    0.0000 N   0  0  0  0  0  0  0  0  0  0  0  0
   -4.1640    3.2626    0.0000 C   0  0  0  0  0  0  0  0  0  0  0  0
   -3.4140    4.5616    0.0000 O   0  0  0  0  0  0  0  0  0  0  0  0
   -3.4140    1.9635    0.0000 O   0  0  0  0  0  0  0  0  0  0  0  0
   -1.9140    1.9635    0.0000 C   0  0  0  0  0  0  0  0  0  0  0  0
   -1.0323    3.1771    0.0000 C   0  0  0  0  0  0  0  0  0  0  0  0
    0.3943    2.7135    0.0000 O   0  0  0  0  0  0  0  0  0  0  0  0
    0.3943    1.2135    0.0000 C   0  0  0  0  0  0  0  0  0  0  0  0
    1.2760    0.0000    0.0000 O   0  0  0  0  0  0  0  0  0  0  0  0
    0.3943   -1.2135    0.0000 C   0  0  0  0  0  0  0  0  0  0  0  0
   -1.0323   -0.7500    0.0000 C   0  0  0  0  0  0  0  0  0  0  0  0
   -1.0323    0.7500    0.0000 C   0  0  0  0  0  0  0  0  0  0  0  0
    2.5860    7.1597    0.0000 S   0  0  0  0  0  0  0  0  0  0  0  0
    2.5860    8.6597    0.0000 O   0  0  0  0  0  0  0  0  0  0  0  0
    2.5860    5.6597    0.0000 O   0  0  0  0  0  0  0  0  0  0  0  0
    4.0860    7.1597    0.0000 C   0  0  0  0  0  0  0  0  0  0  0  0
    4.8360    8.4587    0.0000 C   0  0  0  0  0  0  0  0  0  0  0  0
    6.3360    8.4587    0.0000 C   0  0  0  0  0  0  0  0  0  0  0  0
    7.0860    7.1597    0.0000 C   0  0  0  0  0  0  0  0  0  0  0  0
    6.3360    5.8606    0.0000 C   0  0  0  0  0  0  0  0  0  0  0  0
    4.8360    5.8606    0.0000 C   0  0  0  0  0  0  0  0  0  0  0  0
  1  2  1  0
  2  3  1  0
  2  4  1  0
  2  5  1  0
  5  6  1  0
  6  7  1  0
  7  8  1  0
  8  9  2  0
  8 10  1  0
 10 11  1  0
 11 12  1  0
 12 13  2  0
 13 14  1  0
 14 15  2  0
 15 16  1  0
 16 17  2  0
 10 18  1  0
 18 19  1  0
 19 20  2  0
 19 21  1  0
 21 22  1  0
 22 23  1  0
 23 24  2  0
 24 25  1  0
 25 26  2  0
 26 27  1  0
 27 28  2  0
 21 29  1  0
 29 30  1  0
 30 31  2  0
 30 32  1  0
 32 33  1  0
 33 34  1  0
 34 35  2  0
 35 36  1  0
 36 37  2  0
 37 38  1  0
 38 39  2  0
 32 40  1  0
 40 41  1  0
 41 42  2  0
 41 43  1  0
 43 44  1  0
 44 45  1  0
 45 46  1  0
 46 47  1  0
 47 48  1  0
 48 49  1  0
 49 50  1  0
 50 51  1  0
  6 52  1  0
 52 53  2  0
 52 54  2  0
 52 55  1  0
 55 56  2  0
 56 57  1  0
 57 58  2  0
 58 59  1  0
 59 60  2  0
 17 12  1  0
 28 23  1  0
 39 34  1  0
 51 44  1  0
 60 55  1  0
 51 47  1  0
M  END
>  <Title>  (2) 
idAAABgen4

$$$$

     RDKit          2D

 60 64  0  0  0  0  0  0  0  0999 V2000
   -9.8849   -2.1493    0.0000 C   0  0  0  0  0  0  0  0  0  0  0  0
   -8.4583   -2.6128    0.0000 C   0  0  0  0  0  0  0  0  0  0  0  0
   -7.0317   -3.0763    0.0000 C   0  0  0  0  0  0  0  0  0  0  0  0
   -7.9948   -1.1862    0.0000 C   0  0  0  0  0  0  0  0  0  0  0  0
   -8.9218   -4.0394    0.0000 N   0  0  0  0  0  0  0  0  0  0  0  0
   -7.9182   -5.1541    0.0000 C   0  0  0  0  0  0  0  0  0  0  0  0
   -6.4509   -4.8423    0.0000 O   0  0  0  0  0  0  0  0  0  0  0  0
   -8.3817   -6.5807    0.0000 C   0  0  0  0  0  0  0  0  0  0  0  0
   -9.8083   -7.0442    0.0000 C   0  0  0  0  0  0  0  0  0  0  0  0
   -9.8083   -8.5442    0.0000 C   0  0  0  0  0  0  0  0  0  0  0  0
   -8.3817   -9.0078    0.0000 C   0  0  0  0  0  0  0  0  0  0  0  0
   -7.5000   -7.7942    0.0000 C   0  0  0  0  0  0  0  0  0  0  0  0
   -6.0000   -7.7942    0.0000 C   0  0  0  0  0  0  0  0  0  0  0  0
   -5.2500   -9.0933    0.0000 O   0  0  0  0  0  0  0  0  0  0  0  0
   -5.2500   -6.4952    0.0000 N   0  0  0  0  0  0  0  0  0  0  0  0
   -3.7500   -6.4952    0.0000 C   0  0  0  0  0  0  0  0  0  0  0  0
   -3.0000   -5.1962    0.0000 C   0  0  0  0  0  0  0  0  0  0  0  0
   -1.5000   -5.1962    0.0000 C   0  0  0  0  0  0  0  0  0  0  0  0
   -0.7500   -6.4952    0.0000 O   0  0  0  0  0  0  0  0  0  0  0  0
   -0.7500   -3.8971    0.0000 N   0  0  0  0  0  0  0  0  0  0  0  0
    0.7500   -3.8971    0.0000 C   0  0  0  0  0  0  0  0  0  0  0  0
    1.5000   -2.5981    0.0000 C   0  0  0  0  0  0  0  0  0  0  0  0
    0.7500   -1.2990    0.0000 C   0  0  0  0  0  0  0  0  0  0  0  0
    1.5000    0.0000    0.0000 C   0  0  0  0  0  0  0  0  0  0  0  0
    0.7500    1.2990    0.0000 C   0  0  0  0  0  0  0  0  0  0  0  0
   -0.7500    1.2990    0.0000 C   0  0  0  0  0  0  0  0  0  0  0  0
   -1.5000    0.0000    0.0000 C   0  0  0  0  0  0  0  0  0  0  0  0
   -0.7500   -1.2990    0.0000 C   0  0  0  0  0  0  0  0  0  0  0  0
    1.5000   -5.1962    0.0000 C   0  0  0  0  0  0  0  0  0  0  0  0
    3.0000   -5.1962    0.0000 O   0  0  0  0  0  0  0  0  0  0  0  0
    0.7500   -6.4952    0.0000 N   0  0  0  0  0  0  0  0  0  0  0  0
    1.5000   -7.7942    0.0000 C   0  0  0  0  0  0  0  0  0  0  0  0
    0.7500   -9.0933    0.0000 C   0  0  0  0  0  0  0  0  0  0  0  0
    1.5000  -10.3923    0.0000 C   0  0  0  0  0  0  0  0  0  0  0  0
    0.7500  -11.6913    0.0000 C   0  0  0  0  0  0  0  0  0  0  0  0
    1.5000  -12.9904    0.0000 C   0  0  0  0  0  0  0  0  0  0  0  0
    3.0000  -12.9904    0.0000 C   0  0  0  0  0  0  0  0  0  0  0  0
    3.7500  -11.6913    0.0000 C   0  0  0  0  0  0  0  0  0  0  0  0
    3.0000  -10.3923    0.0000 C   0  0  0  0  0  0  0  0  0  0  0  0
    3.0000   -7.7942    0.0000 C   0  0  0  0  0  0  0  0  0  0  0  0
    3.7500   -6.4952    0.0000 O   0  0  0  0  0  0  0  0  0  0  0  0
    3.7500   -9.0933    0.0000 N   0  0  0  0  0  0  0  0  0  0  0  0
    5.2500   -9.0933    0.0000 C   0  0  0  0  0  0  0  0  0  0  0  0
    6.0000  -10.3923    0.0000 C   0  0  0  0  0  0  0  0  0  0  0  0
    7.5000  -10.3923    0.0000 C   0  0  0  0  0  0  0  0  0  0  0  0
    8.2500  -11.6913    0.0000 C   0  0  0  0  0  0  0  0  0  0  0  0
    9.7500  -11.6913    0.0000 C   0  0  0  0  0  0  0  0  0  0  0  0
   10.5000  -10.3923    0.0000 C   0  0  0  0  0  0  0  0  0  0  0  0
    9.7500   -9.0933    0.0000 C   0  0  0  0  0  0  0  0  0  0  0  0
    8.2500   -9.0933    0.0000 C   0  0  0  0  0  0  0  0  0  0  0  0
    6.0000   -7.7942    0.0000 C   0  0  0  0  0  0  0  0  0  0  0  0
    5.2500   -6.4952    0.0000 O   0  0  0  0  0  0  0  0  0  0  0  0
    7.5000   -7.7942    0.0000 N   0  0  0  0  0  0  0  0  0  0  0  0
    8.2500   -6.4952    0.0000 C   0  0  0  0  0  0  0  0  0  0  0  0
    9.7500   -6.4952    0.0000 C   0  0  0  0  0  0  0  0  0  0  0  0
   10.5000   -7.7942    0.0000 C   0  0  0  0  0  0  0  0  0  0  0  0
   12.0000   -7.7942    0.0000 C   0  0  0  0  0  0  0  0  0  0  0  0
   12.7500   -6.4952    0.0000 C   0  0  0  0  0  0  0  0  0  0  0  0
   12.0000   -5.1962    0.0000 C   0  0  0  0  0  0  0  0  0  0  0  0
   10.5000   -5.1962    0.0000 C   0  0  0  0  0  0  0  0  0  0  0  0
  1  2  1  0
  2  3  1  0
  2  4  1  0
  2  5  1  0
  5  6  1  0
  6  7  2  0
  6  8  1  0
  8  9  1  0
  9 10  1  0
 10 11  1  0
 11 12  1  0
 12 13  1  0
 13 14  2  0
 13 15  1  0
 15 16  1  0
 16 17  1  0
 17 18  1  0
 18 19  2  0
 18 20  1  0
 20 21  1  0
 21 22  1  0
 22 23  1  0
 23 24  2  0
 24 25  1  0
 25 26  2  0
 26 27  1  0
 27 28  2  0
 21 29  1  0
 29 30  2  0
 29 31  1  0
 31 32  1  0
 32 33  1  0
 33 34  1  0
 34 35  2  0
 35 36  1  0
 36 37  2  0
 37 38  1  0
 38 39  2  0
 32 40  1  0
 40 41  2  0
 40 42  1  0
 42 43  1  0
 43 44  1  0
 44 45  1  0
 45 46  2  0
 46 47  1  0
 47 48  2  0
 48 49  1  0
 49 50  2  0
 43 51  1  0
 51 52  2  0
 51 53  1  0
 53 54  1  0
 54 55  1  0
 55 56  2  0
 56 57  1  0
 57 58  2  0
 58 59  1  0
 59 60  2  0
 12  8  1  0
 28 23  1  0
 39 34  1  0
 50 45  1  0
 60 55  1  0
M  END
>  <Title>  (3) 
idAAACgen4

$$$$

     RDKit          2D

 79 85  0  0  0  0  0  0  0  0999 V2000
   -1.5000   -5.1962    0.0000 C   0  0  0  0  0  0  0  0  0  0  0  0
   -0.7500   -3.8971    0.0000 N   0  0  0  0  0  0  0  0  0  0  0  0
    0.7500   -3.8971    0.0000 C   0  0  0  0  0  0  0  0  0  0  0  0
    1.5000   -2.5981    0.0000 C   0  0  0  0  0  0  0  0  0  0  0  0
    0.7500   -1.2990    0.0000 C   0  0  0  0  0  0  0  0  0  0  0  0
    1.5000    0.0000    0.0000 C   0  0  0  0  0  0  0  0  0  0  0  0
    0.7500    1.2990    0.0000 C   0  0  0  0  0  0  0  0  0  0  0  0
   -0.7500    1.2990    0.0000 C   0  0  0  0  0  0  0  0  0  0  0  0
   -1.5000    0.0000    0.0000 C   0  0  0  0  0  0  0  0  0  0  0  0
   -0.7500   -1.2990    0.0000 C   0  0  0  0  0  0  0  0  0  0  0  0
    1.5000   -5.1962    0.0000 C   0  0  0  0  0  0  0  0  0  0  0  0
    3.0000   -5.1962    0.0000 O   0  0  0  0  0  0  0  0  0  0  0  0
    0.7500   -6.4952    0.0000 N   0  0  0  0  0  0  0  0  0  0  0  0
    1.5000   -7.7942    0.0000 C   0  0  0  0  0  0  0  0  0  0  0  0
    0.7500   -9.0933    0.0000 C   0  0  0  0  0  0  0  0  0  0  0  0
    1.5000  -10.3923    0.0000 C   0  0  0  0  0  0  0  0  0  0  0  0
    0.7500  -11.6913    0.0000 C   0  0  0  0  0  0  0  0  0  0  0  0
    1.5000  -12.9904    0.0000 C   0  0  0  0  0  0  0  0  0  0  0  0
    3.0000  -12.9904    0.0000 C   0  0  0  0  0  0  0  0  0  0  0  0
    3.7500  -11.6913    0.0000 C   0  0  0  0  0  0  0  0  0  0  0  0
    3.0000  -10.3923    0.0000 C   0  0  0  0  0  0  0  0  0  0  0  0
    3.0000   -7.7942    0.0000 C   0  0  0  0  0  0  0  0  0  0  0  0
    3.7500   -6.4952    0.0000 O   0  0  0  0  0  0  0  0  0  0  0  0
    3.7500   -9.0933    0.0000 N   0  0  0  0  0  0  0  0  0  0  0  0
    5.2500   -9.0933    0.0000 C   0  0  0  0  0  0  0  0  0  0  0  0
    6.0000  -10.3923    0.0000 C   0  0  0  0  0  0  0  0  0  0  0  0
    7.5000  -10.3923    0.0000 C   0  0  0  0  0  0  0  0  0  0  0  0
    8.2500  -11.6913    0.0000 C   0  0  0  0  0  0  0  0  0  0  0  0
    9.7500  -11.6913    0.0000 C   0  0  0  0  0  0  0  0  0  0  0  0
   10.5000  -10.3923    0.0000 C   0  0  0  0  0  0  0  0  0  0  0  0
    9.7500   -9.0933    0.0000 C   0  0  0  0  0  0  0  0  0  0  0  0
    8.2500   -9.0933    0.0000 C   0  0  0  0  0  0  0  0  0  0  0  0
    6.0000   -7.7942    0.0000 C   0  0  0  0  0  0  0  0  0  0  0  0
    5.2500   -6.4952    0.0000 O   0  0  0  0  0  0  0  0  0  0  0  0
    7.5000   -7.7942    0.0000 N   0  0  0  0  0  0  0  0  0  0  0  0
    8.2500   -6.4952    0.0000 C   0  0  0  0  0  0  0  0  0  0  0  0
    9.7500   -6.4952    0.0000 C   0  0  0  0  0  0  0  0  0  0  0  0
   10.5000   -5.1962    0.0000 C   0  0  0  0  0  0  0  0  0  0  0  0
   12.0000   -5.1962    0.0000 C   0  0  0  0  0  0  0  0  0  0  0  0
   12.7500   -3.8971    0.0000 C   0  0  0  0  0  0  0  0  0  0  0  0
   12.0000   -2.5981    0.0000 C   0  0  0  0  0  0  0  0  0  0  0  0
   10.5000   -2.5981    0.0000 C   0  0  0  0  0  0  0  0  0  0  0  0
    9.7500   -3.8971    0.0000 C   0  0  0  0  0  0  0  0  0  0  0  0
    7.5000   -5.1962    0.0000 C   0  0  0  0  0  0  0  0  0  0  0  0
    6.0000   -5.1962    0.0000 O   0  0  0  0  0  0  0  0  0  0  0  0
    8.2500   -3.8971    0.0000 N   0  0  0  0  0  0  0  0  0  0  0  0
    7.5000   -2.5981    0.0000 C   0  0  0  0  0  0  0  0  0  0  0  0
    6.0000   -2.5981    0.0000 C   0  0  0  0  0  0  0  0  0  0  0  0
    5.2500   -1.2990    0.0000 C   0  0  0  0  0  0  0  0  0  0  0  0
    3.7500   -1.2990    0.0000 C   0  0  0  0  0  0  0  0  0  0  0  0
    3.0000   -0.0000    0.0000 C   0  0  0  0  0  0  0  0  0  0  0  0
    3.7500    1.2990    0.0000 C   0  0  0  0  0  0  0  0  0  0  0  0
    5.2500    1.2990    0.0000 C   0  0  0  0  0  0  0  0  0  0  0  0
    6.0000   -0.0000    0.0000 C   0  0  0  0  0  0  0  0  0  0  0  0
    8.2500   -1.2990    0.0000 C   0  0  0  0  0  0  0  0  0  0  0  0
    9.0235   -1.4919    0.0000 O   0  0  0  0  0  0  0  0  0  0  0  0
    7.5000   -0.0000    0.0000 N   0  0  0  0  0  0  0  0  0  0  0  0
    8.2500    1.2990    0.0000 C   0  0  0  0  0  0  0  0  0  0  0  0
    9.7500    1.2990    0.0000 C   0  0  0  0  0  0  0  0  0  0  0  0
   10.5000    0.0000    0.0000 C   0  0  0  0  0  0  0  0  0  0  0  0
    9.7500   -1.2990    0.0000 C   0  0  0  0  0  0  0  0  0  0  0  0
   10.5000   -2.5981    0.0000 C   0  0  0  0  0  0  0  0  0  0  0  0
   12.0000   -2.5981    0.0000 C   0  0  0  0  0  0  0  0  0  0  0  0
   12.7500   -1.2990    0.0000 C   0  0  0  0  0  0  0  0  0  0  0  0
   12.0000    0.0000    0.0000 C   0  0  0  0  0  0  0  0  0  0  0  0
    7.5000    2.5981    0.0000 C   0  0  0  0  0  0  0  0  0  0  0  0
    8.2500    3.8971    0.0000 O   0  0  0  0  0  0  0  0  0  0  0  0
    6.0000    2.5981    0.0000 N   0  0  0  0  0  0  0  0  0  0  0  0
    5.2500    3.8971    0.0000 C   0  0  0  0  0  0  0  0  0  0  0  0
    3.7500    3.8971    0.0000 C   0  0  0  0  0  0  0  0  0  0  0  0
    3.0000    5.1962    0.0000 C   0  0  0  0  0  0  0  0  0  0  0  0
    3.7500    6.4952    0.0000 C   0  0  0  0  0  0  0  0  0  0  0  0
    3.0000    7.7942    0.0000 C   0  0  0  0  0  0  0  0  0  0  0  0
    1.5000    7.7942    0.0000 C   0  0  0  0  0  0  0  0  0  0  0  0
    0.7500    6.4952    0.0000 C   0  0  0  0  0  0  0  0  0  0  0  0
    1.5000    5.1962    0.0000 C   0  0  0  0  0  0  0  0  0  0  0  0
    6.0000    5.1962    0.0000 C   0  0  0  0  0  0  0  0  0  0  0  0
    5.2500    6.4952    0.0000 N   0  0  0  0  0  0  0  0  0  0  0  0
    7.5000    5.1962    0.0000 O   0  0  0  0  0  0  0  0  0  0  0  0
  1  2  1  0
  2  3  1  0
  3  4  1  0
  4  5  1  0
  5  6  2  0
  6  7  1  0
  7  8  2  0
  8  9  1  0
  9 10  2  0
  3 11  1  0
 11 12  2  0
 11 13  1  0
 13 14  1  0
 14 15  1  0
 15 16  1  0
 16 17  2  0
 17 18  1  0
 18 19  2  0
 19 20  1  0
 20 21  2  0
 14 22  1  0
 22 23  2  0
 22 24  1  0
 24 25  1  0
 25 26  1  0
 26 27  1  0
 27 28  2  0
 28 29  1  0
 29 30  2  0
 30 31  1  0
 31 32  2  0
 25 33  1  0
 33 34  2  0
 33 35  1  0
 35 36  1  0
 36 37  1  0
 37 38  1  0
 38 39  2  0
 39 40  1  0
 40 41  2  0
 41 42  1  0
 42 43  2  0
 36 44  1  0
 44 45  2  0
 44 46  1  0
 46 47  1  0
 47 48  1  0
 48 49  1  0
 49 50  2  0
 50 51  1  0
 51 52  2  0
 52 53  1  0
 53 54  2  0
 47 55  1  0
 55 56  2  0
 55 57  1  0
 57 58  1  0
 58 59  1  0
 59 60  1  0
 60 61  2  0
 61 62  1  0
 62 63  2  0
 63 64  1  0
 64 65  2  0
 58 66  1  0
 66 67  2  0
 66 68  1  0
 68 69  1  0
 69 70  1  0
 70 71  1  0
 71 72  2  0
 72 73  1  0
 73 74  2  0
 74 75  1  0
 75 76  2  0
 69 77  1  0
 77 78  1  0
 77 79  2  0
 10  5  1  0
 21 16  1  0
 32 27  1  0
 43 38  1  0
 54 49  1  0
 65 60  1  0
 76 71  1  0
M  END
>  <Title>  (4) 
idAAADgen4

$$$$

     RDKit          2D

 25 27  0  0  0  0  0  0  0  0999 V2000
    3.0000    0.0000    0.0000 C   0  0  0  0  0  0  0  0  0  0  0  0
    1.5000    0.0000    0.0000 C   0  0  0  0  0  0  0  0  0  0  0  0
    0.7500   -1.2990    0.0000 C   0  0  0  0  0  0  0  0  0  0  0  0
   -0.7500   -1.2990    0.0000 C   0  0  0  0  0  0  0  0  0  0  0  0
   -1.5000    0.0000    0.0000 C   0  0  0  0  0  0  0  0  0  0  0  0
   -3.0000    0.0000    0.0000 N   0  0  0  0  0  0  0  0  0  0  0  0
   -3.7500    1.2990    0.0000 C   0  0  0  0  0  0  0  0  0  0  0  0
   -3.0000    2.5981    0.0000 O   0  0  0  0  0  0  0  0  0  0  0  0
   -5.2500    1.2990    0.0000 C   0  0  0  0  0  0  0  0  0  0  0  0
   -6.0000    2.5981    0.0000 C   0  0  0  0  0  0  0  0  0  0  0  0
   -5.2500    3.8971    0.0000 C   0  0  0  0  0  0  0  0  0  0  0  0
   -6.0000    5.1962    0.0000 C   0  0  0  0  0  0  0  0  0  0  0  0
   -7.5000    5.1962    0.0000 C   0  0  0  0  0  0  0  0  0  0  0  0
   -8.2500    3.8971    0.0000 C   0  0  0  0  0  0  0  0  0  0  0  0
   -9.7500    3.8971    0.0000 S   0  0  0  0  0  0  0  0  0  0  0  0
   -9.7500    5.3971    0.0000 O   0  0  0  0  0  0  0  0  0  0  0  0
   -9.7500    2.3971    0.0000 O   0  0  0  0  0  0  0  0  0  0  0  0
  -11.2500    3.8971    0.0000 N   0  0  0  0  0  0  0  0  0  0  0  0
  -12.1317    2.6836    0.0000 C   0  0  0  0  0  0  0  0  0  0  0  0
  -13.5583    3.1471    0.0000 C   0  0  0  0  0  0  0  0  0  0  0  0
  -13.5583    4.6471    0.0000 C   0  0  0  0  0  0  0  0  0  0  0  0
  -12.1317    5.1106    0.0000 C   0  0  0  0  0  0  0  0  0  0  0  0
   -7.5000    2.5981    0.0000 C   0  0  0  0  0  0  0  0  0  0  0  0
   -0.7500    1.2990    0.0000 C   0  0  0  0  0  0  0  0  0  0  0  0
    0.7500    1.2990    0.0000 C   0  0  0  0  0  0  0  0  0  0  0  0
  1  2  1  0
  2  3  2  0
  3  4  1  0
  4  5  2  0
  5  6  1  0
  6  7  1  0
  7  8  2  0
  7  9  1  0
  9 10  1  0
 10 11  2  0
 11 12  1  0
 12 13  2  0
 13 14  1  0
 14 15  1  0
 15 16  2  0
 15 17  2  0
 15 18  1  0
 18 19  1  0
 19 20  1  0
 20 21  1  0
 21 22  1  0
 14 23  2  0
  5 24  1  0
 24 25  2  0
 25  2  1  0
 23 10  1  0
 22 18  1  0
M  END
>  <Title>  (5) 
idAAAEgen4

$$$$

     RDKit          2D

 38 40  0  0  0  0  0  0  0  0999 V2000
   12.1721   -0.5240    0.0000 C   0  0  0  0  0  0  0  0  0  0  0  0
   12.3957    0.9593    0.0000 C   0  0  0  0  0  0  0  0  0  0  0  0
   12.6193    2.4425    0.0000 C   0  0  0  0  0  0  0  0  0  0  0  0
   13.8790    0.7357    0.0000 C   0  0  0  0  0  0  0  0  0  0  0  0
   10.9125    1.1828    0.0000 O   0  0  0  0  0  0  0  0  0  0  0  0
   10.3644    2.5791    0.0000 C   0  0  0  0  0  0  0  0  0  0  0  0
   11.2997    3.7519    0.0000 O   0  0  0  0  0  0  0  0  0  0  0  0
    8.8812    2.8027    0.0000 N   0  0  0  0  0  0  0  0  0  0  0  0
    7.9460    1.6299    0.0000 C   0  0  0  0  0  0  0  0  0  0  0  0
    6.4627    1.8535    0.0000 C   0  0  0  0  0  0  0  0  0  0  0  0
    5.9147    3.2498    0.0000 C   0  0  0  0  0  0  0  0  0  0  0  0
    4.4315    3.4734    0.0000 C   0  0  0  0  0  0  0  0  0  0  0  0
    3.4962    2.3006    0.0000 N   0  0  0  0  0  0  0  0  0  0  0  0
    2.0130    2.5242    0.0000 C   0  0  0  0  0  0  0  0  0  0  0  0
    1.4650    3.9205    0.0000 O   0  0  0  0  0  0  0  0  0  0  0  0
    1.0777    1.3515    0.0000 C   0  0  0  0  0  0  0  0  0  0  0  0
    1.7286    0.0000    0.0000 C   0  0  0  0  0  0  0  0  0  0  0  0
    1.0777   -1.3515    0.0000 C   0  0  0  0  0  0  0  0  0  0  0  0
   -0.3846   -1.6852    0.0000 C   0  0  0  0  0  0  0  0  0  0  0  0
   -1.5574   -0.7500    0.0000 C   0  0  0  0  0  0  0  0  0  0  0  0
   -1.5574    0.7500    0.0000 C   0  0  0  0  0  0  0  0  0  0  0  0
   -0.3846    1.6852    0.0000 C   0  0  0  0  0  0  0  0  0  0  0  0
    6.8499    4.4226    0.0000 C   0  0  0  0  0  0  0  0  0  0  0  0
    8.3332    4.1990    0.0000 C   0  0  0  0  0  0  0  0  0  0  0  0
    9.2684    5.3718    0.0000 C   0  0  0  0  0  0  0  0  0  0  0  0
   10.7517    5.1482    0.0000 O   0  0  0  0  0  0  0  0  0  0  0  0
    8.7204    6.7681    0.0000 N   0  0  0  0  0  0  0  0  0  0  0  0
    9.6556    7.9408    0.0000 C   0  0  0  0  0  0  0  0  0  0  0  0
    9.1076    9.3371    0.0000 C   0  0  0  0  0  0  0  0  0  0  0  0
   10.0429   10.5099    0.0000 C   0  0  0  0  0  0  0  0  0  0  0  0
   11.5261   10.2863    0.0000 C   0  0  0  0  0  0  0  0  0  0  0  0
   12.4614   11.4591    0.0000 C   0  0  0  0  0  0  0  0  0  0  0  0
   11.9133   12.8554    0.0000 C   0  0  0  0  0  0  0  0  0  0  0  0
   10.4301   13.0789    0.0000 C   0  0  0  0  0  0  0  0  0  0  0  0
    9.4949   11.9062    0.0000 C   0  0  0  0  0  0  0  0  0  0  0  0
   11.1389    7.7172    0.0000 C   0  0  0  0  0  0  0  0  0  0  0  0
   11.6869    6.3209    0.0000 O   0  0  0  0  0  0  0  0  0  0  0  0
   12.0741    8.8900    0.0000 O   0  0  0  0  0  0  0  0  0  0  0  0
  1  2  1  0
  2  3  1  0
  2  4  1  0
  2  5  1  0
  5  6  1  0
  6  7  2  0
  6  8  1  0
  8  9  1  0
  9 10  1  0
 10 11  1  0
 11 12  1  0
 12 13  1  0
 13 14  1  0
 14 15  2  0
 14 16  1  0
 16 17  1  0
 17 18  1  0
 18 19  1  0
 19 20  1  0
 20 21  1  0
 21 22  1  0
 11 23  1  0
 23 24  1  0
 24 25  1  0
 25 26  2  0
 25 27  1  0
 27 28  1  0
 28 29  1  0
 29 30  1  0
 30 31  2  0
 31 32  1  0
 32 33  2  0
 33 34  1  0
 34 35  2  0
 28 36  1  0
 36 37  2  0
 36 38  1  0
 24  8  1  0
 35 30  1  0
 22 16  1  0
M  END
>  <Title>  (6) 
idAAAFgen4

$$$$

     RDKit          2D

 51 54  0  0  0  0  0  0  0  0999 V2000
    6.7500   -6.4952    0.0000 C   0  0  0  0  0  0  0  0  0  0  0  0
    6.0000   -5.1962    0.0000 C   0  0  0  0  0  0  0  0  0  0  0  0
    6.7500   -3.8971    0.0000 C   0  0  0  0  0  0  0  0  0  0  0  0
    4.5000   -5.1962    0.0000 C   0  0  0  0  0  0  0  0  0  0  0  0
    3.7500   -3.8971    0.0000 C   0  0  0  0  0  0  0  0  0  0  0  0
    2.2500   -3.8971    0.0000 N   0  0  0  0  0  0  0  0  0  0  0  0
    1.5000   -2.5981    0.0000 S   0  0  0  0  0  0  0  0  0  0  0  0
    0.2010   -3.3481    0.0000 O   0  0  0  0  0  0  0  0  0  0  0  0
    2.7990   -1.8481    0.0000 O   0  0  0  0  0  0  0  0  0  0  0  0
    0.7500   -1.2990    0.0000 C   0  0  0  0  0  0  0  0  0  0  0  0
    1.5000    0.0000    0.0000 C   0  0  0  0  0  0  0  0  0  0  0  0
    0.7500    1.2990    0.0000 C   0  0  0  0  0  0  0  0  0  0  0  0
   -0.7500    1.2990    0.0000 C   0  0  0  0  0  0  0  0  0  0  0  0
   -1.5000    0.0000    0.0000 C   0  0  0  0  0  0  0  0  0  0  0  0
   -0.7500   -1.2990    0.0000 C   0  0  0  0  0  0  0  0  0  0  0  0
    4.5000   -2.5981    0.0000 C   0  0  0  0  0  0  0  0  0  0  0  0
    3.7500   -1.2990    0.0000 O   0  0  0  0  0  0  0  0  0  0  0  0
    6.0000   -2.5981    0.0000 N   0  0  0  0  0  0  0  0  0  0  0  0
    6.7500   -1.2990    0.0000 C   0  0  0  0  0  0  0  0  0  0  0  0
    8.2500   -1.2990    0.0000 C   0  0  0  0  0  0  0  0  0  0  0  0
    9.0000   -0.0000    0.0000 C   0  0  0  0  0  0  0  0  0  0  0  0
   10.5000   -0.0000    0.0000 C   0  0  0  0  0  0  0  0  0  0  0  0
   11.2500    1.2990    0.0000 C   0  0  0  0  0  0  0  0  0  0  0  0
   10.5000    2.5981    0.0000 C   0  0  0  0  0  0  0  0  0  0  0  0
    9.0000    2.5981    0.0000 C   0  0  0  0  0  0  0  0  0  0  0  0
    8.2500    1.2990    0.0000 C   0  0  0  0  0  0  0  0  0  0  0  0
    6.0000   -0.0000    0.0000 C   0  0  0  0  0  0  0  0  0  0  0  0
    4.5000   -0.0000    0.0000 O   0  0  0  0  0  0  0  0  0  0  0  0
    6.7500    1.2990    0.0000 C   0  0  0  0  0  0  0  0  0  0  0  0
    6.0000    2.5981    0.0000 C   0  0  0  0  0  0  0  0  0  0  0  0
    6.7500    3.8971    0.0000 C   0  0  0  0  0  0  0  0  0  0  0  0
    6.0000    5.1962    0.0000 C   0  0  0  0  0  0  0  0  0  0  0  0
    6.7500    6.4952    0.0000 C   0  0  0  0  0  0  0  0  0  0  0  0
    6.0000    7.7942    0.0000 C   0  0  0  0  0  0  0  0  0  0  0  0
    4.5000    7.7942    0.0000 C   0  0  0  0  0  0  0  0  0  0  0  0
    3.7500    6.4952    0.0000 C   0  0  0  0  0  0  0  0  0  0  0  0
    4.5000    5.1962    0.0000 C   0  0  0  0  0  0  0  0  0  0  0  0
    4.5000    2.5981    0.0000 C   0  0  0  0  0  0  0  0  0  0  0  0
    3.7500    1.2990    0.0000 O   0  0  0  0  0  0  0  0  0  0  0  0
    3.7500    3.8971    0.0000 N   0  0  0  0  0  0  0  0  0  0  0  0
    2.2500    3.8971    0.0000 C   0  0  0  0  0  0  0  0  0  0  0  0
    1.5000    5.1962    0.0000 C   0  0  0  0  0  0  0  0  0  0  0  0
    0.0000    5.1962    0.0000 C   0  0  0  0  0  0  0  0  0  0  0  0
   -0.7500    6.4952    0.0000 C   0  0  0  0  0  0  0  0  0  0  0  0
   -2.2500    6.4952    0.0000 C   0  0  0  0  0  0  0  0  0  0  0  0
   -3.0000    5.1962    0.0000 C   0  0  0  0  0  0  0  0  0  0  0  0
   -2.2500    3.8971    0.0000 C   0  0  0  0  0  0  0  0  0  0  0  0
   -0.7500    3.8971    0.0000 C   0  0  0  0  0  0  0  0  0  0  0  0
    1.5000    2.5981    0.0000 C   0  0  0  0  0  0  0  0  0  0  0  0
    2.2500    1.2990    0.0000 O   0  0  0  0  0  0  0  0  0  0  0  0
    0.0000    2.5981    0.0000 O   0  0  0  0  0  0  0  0  0  0  0  0
  1  2  1  0
  2  3  1  0
  2  4  1  0
  4  5  1  0
  5  6  1  0
  6  7  1  0
  7  8  2  0
  7  9  2  0
  7 10  1  0
 10 11  2  0
 11 12  1  0
 12 13  2  0
 13 14  1  0
 14 15  2  0
  5 16  1  0
 16 17  2  0
 16 18  1  0
 18 19  1  0
 19 20  1  0
 20 21  1  0
 21 22  2  0
 22 23  1  0
 23 24  2  0
 24 25  1  0
 25 26  2  0
 19 27  1  0
 27 28  1  0
 27 29  1  0
 29 30  1  0
 30 31  1  0
 31 32  1  0
 32 33  2  0
 33 34  1  0
 34 35  2  0
 35 36  1  0
 36 37  2  0
 30 38  1  0
 38 39  2  0
 38 40  1  0
 40 41  1  0
 41 42  1  0
 42 43  1  0
 43 44  2  0
 44 45  1  0
 45 46  2  0
 46 47  1  0
 47 48  2  0
 41 49  1  0
 49 50  2  0
 49 51  1  0
 15 10  1  0
 26 21  1  0
 37 32  1  0
 48 43  1  0
M  END
>  <Title>  (7) 
idAAAGgen4

$$$$

     RDKit          2D

 49 53  0  0  0  0  0  0  0  0999 V2000
   -0.6149   13.1058    0.0000 C   0  0  0  0  0  0  0  0  0  0  0  0
   -1.9140   12.3558    0.0000 C   0  0  0  0  0  0  0  0  0  0  0  0
   -3.2130   11.6058    0.0000 C   0  0  0  0  0  0  0  0  0  0  0  0
   -2.6640   13.6549    0.0000 C   0  0  0  0  0  0  0  0  0  0  0  0
   -1.1640   11.0568    0.0000 C   0  0  0  0  0  0  0  0  0  0  0  0
   -1.9140    9.7578    0.0000 C   0  0  0  0  0  0  0  0  0  0  0  0
   -3.4140    9.7578    0.0000 N   0  0  0  0  0  0  0  0  0  0  0  0
   -4.1640    8.4587    0.0000 C   0  0  0  0  0  0  0  0  0  0  0  0
   -3.4140    7.1597    0.0000 O   0  0  0  0  0  0  0  0  0  0  0  0
   -5.6640    8.4587    0.0000 C   0  0  0  0  0  0  0  0  0  0  0  0
   -6.4140    9.7578    0.0000 C   0  0  0  0  0  0  0  0  0  0  0  0
   -5.6640   11.0568    0.0000 C   0  0  0  0  0  0  0  0  0  0  0  0
   -4.1640   11.0568    0.0000 C   0  0  0  0  0  0  0  0  0  0  0  0
   -3.4140   12.3558    0.0000 C   0  0  0  0  0  0  0  0  0  0  0  0
   -4.1640   13.6549    0.0000 C   0  0  0  0  0  0  0  0  0  0  0  0
   -5.6640   13.6549    0.0000 C   0  0  0  0  0  0  0  0  0  0  0  0
   -6.4140   12.3558    0.0000 C   0  0  0  0  0  0  0  0  0  0  0  0
   -6.4140    7.1597    0.0000 N   0  0  0  0  0  0  0  0  0  0  0  0
   -5.6640    5.8606    0.0000 C   0  0  0  0  0  0  0  0  0  0  0  0
   -4.1640    5.8606    0.0000 O   0  0  0  0  0  0  0  0  0  0  0  0
   -6.4140    4.5616    0.0000 C   0  0  0  0  0  0  0  0  0  0  0  0
   -7.9140    4.5616    0.0000 C   0  0  0  0  0  0  0  0  0  0  0  0
   -8.6640    5.8606    0.0000 C   0  0  0  0  0  0  0  0  0  0  0  0
   -7.9140    7.1597    0.0000 C   0  0  0  0  0  0  0  0  0  0  0  0
   -8.6640    8.4587    0.0000 C   0  0  0  0  0  0  0  0  0  0  0  0
  -10.1640    8.4587    0.0000 C   0  0  0  0  0  0  0  0  0  0  0  0
  -10.9140    7.1597    0.0000 C   0  0  0  0  0  0  0  0  0  0  0  0
  -10.1640    5.8606    0.0000 C   0  0  0  0  0  0  0  0  0  0  0  0
   -5.6640    3.2626    0.0000 N   0  0  0  0  0  0  0  0  0  0  0  0
   -4.1640    3.2626    0.0000 C   0  0  0  0  0  0  0  0  0  0  0  0
   -3.4140    4.5616    0.0000 O   0  0  0  0  0  0  0  0  0  0  0  0
   -3.4140    1.9635    0.0000 O   0  0  0  0  0  0  0  0  0  0  0  0
   -1.9140    1.9635    0.0000 C   0  0  0  0  0  0  0  0  0  0  0  0
   -1.0323    3.1771    0.0000 C   0  0  0  0  0  0  0  0  0  0  0  0
    0.3943    2.7135    0.0000 O   0  0  0  0  0  0  0  0  0  0  0  0
    0.3943    1.2135    0.0000 C   0  0  0  0  0  0  0  0  0  0  0  0
    1.2760    0.0000    0.0000 O   0  0  0  0  0  0  0  0  0  0  0  0
    0.3943   -1.2135    0.0000 C   0  0  0  0  0  0  0  0  0  0  0  0
   -1.0323   -0.7500    0.0000 C   0  0  0  0  0  0  0  0  0  0  0  0
   -1.0323    0.7500    0.0000 C   0  0  0  0  0  0  0  0  0  0  0  0
   -1.1640    8.4587    0.0000 S   0  0  0  0  0  0  0  0  0  0  0  0
   -2.4630    7.7087    0.0000 O   0  0  0  0  0  0  0  0  0  0  0  0
    0.1351    9.2087    0.0000 O   0  0  0  0  0  0  0  0  0  0  0  0
   -0.4140    7.1597    0.0000 C   0  0  0  0  0  0  0  0  0  0  0  0
   -1.1640    5.8606    0.0000 C   0  0  0  0  0  0  0  0  0  0  0  0
   -0.4140    4.5616    0.0000 C   0  0  0  0  0  0  0  0  0  0  0  0
    1.0860    4.5616    0.0000 C   0  0  0  0  0  0  0  0  0  0  0  0
    1.8360    5.8606    0.0000 C   0  0  0  0  0  0  0  0  0  0  0  0
    1.0860    7.1597    0.0000 C   0  0  0  0  0  0  0  0  0  0  0  0
  1  2  1  0
  2  3  1  0
  2  4  1  0
  2  5  1  0
  5  6  1  0
  6  7  1  0
  7  8  1  0
  8  9  2  0
  8 10  1  0
 10 11  1  0
 11 12  1  0
 12 13  2  0
 13 14  1  0
 14 15  2  0
 15 16  1  0
 16 17  2  0
 10 18  1  0
 18 19  1  0
 19 20  2  0
 19 21  1  0
 21 22  1  0
 22 23  1  0
 23 24  2  0
 24 25  1  0
 25 26  2  0
 26 27  1  0
 27 28  2  0
 21 29  1  0
 29 30  1  0
 30 31  2  0
 30 32  1  0
 32 33  1  0
 33 34  1  0
 34 35  1  0
 35 36  1  0
 36 37  1  0
 37 38  1  0
 38 39  1  0
 39 40  1  0
  6 41  1  0
 41 42  2  0
 41 43  2  0
 41 44  1  0
 44 45  2  0
 45 46  1  0
 46 47  2  0
 47 48  1  0
 48 49  2  0
 17 12  1  0
 28 23  1  0
 40 33  1  0
 49 44  1  0
 40 36  1  0
M  END
>  <Title>  (8) 
idAAAHgen4

$$$$

     RDKit          2D

 63 68  0  0  0  0  0  0  0  0999 V2000
    6.4067   -6.6989    0.0000 C   0  0  0  0  0  0  0  0  0  0  0  0
    7.7057   -7.4489    0.0000 C   0  0  0  0  0  0  0  0  0  0  0  0
    7.7057   -8.9489    0.0000 C   0  0  0  0  0  0  0  0  0  0  0  0
    9.0047   -6.6989    0.0000 C   0  0  0  0  0  0  0  0  0  0  0  0
   10.3038   -7.4489    0.0000 N   0  0  0  0  0  0  0  0  0  0  0  0
   10.3038   -8.9489    0.0000 C   0  0  0  0  0  0  0  0  0  0  0  0
   11.6028   -9.6989    0.0000 C   0  0  0  0  0  0  0  0  0  0  0  0
   12.9019   -8.9489    0.0000 O   0  0  0  0  0  0  0  0  0  0  0  0
   11.6028  -11.1989    0.0000 C   0  0  0  0  0  0  0  0  0  0  0  0
   12.9019  -11.9489    0.0000 C   0  0  0  0  0  0  0  0  0  0  0  0
   12.9019  -13.4489    0.0000 C   0  0  0  0  0  0  0  0  0  0  0  0
   11.6028  -14.1989    0.0000 C   0  0  0  0  0  0  0  0  0  0  0  0
   11.6028  -15.6989    0.0000 C   0  0  0  0  0  0  0  0  0  0  0  0
   12.9019  -16.4489    0.0000 C   0  0  0  0  0  0  0  0  0  0  0  0
   14.2009  -15.6989    0.0000 C   0  0  0  0  0  0  0  0  0  0  0  0
   14.2009  -14.1989    0.0000 C   0  0  0  0  0  0  0  0  0  0  0  0
   10.3038  -11.9489    0.0000 N   0  0  0  0  0  0  0  0  0  0  0  0
    9.0047  -11.1989    0.0000 C   0  0  0  0  0  0  0  0  0  0  0  0
    9.0047   -9.6989    0.0000 O   0  0  0  0  0  0  0  0  0  0  0  0
    7.7057  -11.9489    0.0000 C   0  0  0  0  0  0  0  0  0  0  0  0
    6.4067  -11.1989    0.0000 C   0  0  0  0  0  0  0  0  0  0  0  0
    5.1076  -11.9489    0.0000 C   0  0  0  0  0  0  0  0  0  0  0  0
    5.1076  -13.4489    0.0000 C   0  0  0  0  0  0  0  0  0  0  0  0
    3.8086  -14.1989    0.0000 C   0  0  0  0  0  0  0  0  0  0  0  0
    2.5095  -13.4489    0.0000 C   0  0  0  0  0  0  0  0  0  0  0  0
    2.5095  -11.9489    0.0000 C   0  0  0  0  0  0  0  0  0  0  0  0
    3.8086  -11.1989    0.0000 C   0  0  0  0  0  0  0  0  0  0  0  0
    7.7057  -13.4489    0.0000 N   0  0  0  0  0  0  0  0  0  0  0  0
    6.4067  -14.1989    0.0000 C   0  0  0  0  0  0  0  0  0  0  0  0
    5.6404  -13.9792    0.0000 O   0  0  0  0  0  0  0  0  0  0  0  0
    6.4067  -15.6989    0.0000 O   0  0  0  0  0  0  0  0  0  0  0  0
    5.1076  -16.4489    0.0000 C   0  0  0  0  0  0  0  0  0  0  0  0
    3.7373  -15.8388    0.0000 C   0  0  0  0  0  0  0  0  0  0  0  0
    2.7336  -16.9535    0.0000 O   0  0  0  0  0  0  0  0  0  0  0  0
    3.4836  -18.2525    0.0000 C   0  0  0  0  0  0  0  0  0  0  0  0
    3.3268  -19.7443    0.0000 O   0  0  0  0  0  0  0  0  0  0  0  0
    4.6971  -20.3544    0.0000 C   0  0  0  0  0  0  0  0  0  0  0  0
    5.7008  -19.2397    0.0000 C   0  0  0  0  0  0  0  0  0  0  0  0
    4.9508  -17.9407    0.0000 C   0  0  0  0  0  0  0  0  0  0  0  0
   11.6028   -6.6989    0.0000 S   0  0  0  0  0  0  0  0  0  0  0  0
   12.3528   -7.9979    0.0000 O   0  0  0  0  0  0  0  0  0  0  0  0
   10.8528   -5.3999    0.0000 O   0  0  0  0  0  0  0  0  0  0  0  0
   12.9019   -5.9489    0.0000 C   0  0  0  0  0  0  0  0  0  0  0  0
   12.9019   -4.4489    0.0000 C   0  0  0  0  0  0  0  0  0  0  0  0
   14.2009   -3.6989    0.0000 C   0  0  0  0  0  0  0  0  0  0  0  0
   15.4999   -4.4489    0.0000 C   0  0  0  0  0  0  0  0  0  0  0  0
   16.7990   -3.6989    0.0000 N   0  0  0  0  0  0  0  0  0  0  0  0
   16.7990   -2.1989    0.0000 C   0  0  0  0  0  0  0  0  0  0  0  0
   15.4999   -1.4489    0.0000 O   0  0  0  0  0  0  0  0  0  0  0  0
   18.0980   -1.4489    0.0000 C   0  0  0  0  0  0  0  0  0  0  0  0
   17.7098   -0.0000    0.0000 C   0  0  0  0  0  0  0  0  0  0  0  0
   18.0980    1.4489    0.0000 C   0  0  0  0  0  0  0  0  0  0  0  0
   19.1587    2.5095    0.0000 C   0  0  0  0  0  0  0  0  0  0  0  0
   20.6076    2.8978    0.0000 C   0  0  0  0  0  0  0  0  0  0  0  0
   22.0564    2.5095    0.0000 C   0  0  0  0  0  0  0  0  0  0  0  0
   23.1171    1.4489    0.0000 C   0  0  0  0  0  0  0  0  0  0  0  0
   23.5053   -0.0000    0.0000 C   0  0  0  0  0  0  0  0  0  0  0  0
   23.1171   -1.4489    0.0000 C   0  0  0  0  0  0  0  0  0  0  0  0
   22.0564   -2.5095    0.0000 C   0  0  0  0  0  0  0  0  0  0  0  0
   20.6076   -2.8978    0.0000 C   0  0  0  0  0  0  0  0  0  0  0  0
   19.1587   -2.5095    0.0000 C   0  0  0  0  0  0  0  0  0  0  0  0
   15.4999   -5.9489    0.0000 C   0  0  0  0  0  0  0  0  0  0  0  0
   14.2009   -6.6989    0.0000 C   0  0  0  0  0  0  0  0  0  0  0  0
  1  2  1  0
  2  3  1  0
  2  4  1  0
  4  5  1  0
  5  6  1  0
  6  7  1  0
  7  8  1  0
  7  9  1  0
  9 10  1  0
 10 11  1  0
 11 12  2  0
 12 13  1  0
 13 14  2  0
 14 15  1  0
 15 16  2  0
  9 17  1  0
 17 18  1  0
 18 19  2  0
 18 20  1  0
 20 21  1  0
 21 22  1  0
 22 23  2  0
 23 24  1  0
 24 25  2  0
 25 26  1  0
 26 27  2  0
 20 28  1  0
 28 29  1  0
 29 30  2  0
 29 31  1  0
 31 32  1  0
 32 33  1  0
 33 34  1  0
 34 35  1  0
 35 36  1  0
 36 37  1  0
 37 38  1  0
 38 39  1  0
  5 40  1  0
 40 41  2  0
 40 42  2  0
 40 43  1  0
 43 44  2  0
 44 45  1  0
 45 46  2  0
 46 47  1  0
 47 48  1  0
 48 49  2  0
 48 50  1  0
 50 51  1  0
 51 52  1  0
 52 53  1  0
 53 54  1  0
 54 55  1  0
 55 56  1  0
 56 57  1  0
 57 58  1  0
 58 59  1  0
 59 60  1  0
 60 61  1  0
 46 62  1  0
 62 63  2  0
 16 11  1  0
 27 22  1  0
 39 32  1  0
 63 43  1  0
 39 35  1  0
 61 50  1  0
M  END
>  <Title>  (9) 
idAAAIgen4

$$$$

     RDKit          2D

 60 64  0  0  0  0  0  0  0  0999 V2000
    5.2500   -2.7990    0.0000 C   0  0  0  0  0  0  0  0  0  0  0  0
    5.2500   -1.2990    0.0000 C   0  0  0  0  0  0  0  0  0  0  0  0
    5.2500    0.2010    0.0000 C   0  0  0  0  0  0  0  0  0  0  0  0
    6.7500   -1.2990    0.0000 C   0  0  0  0  0  0  0  0  0  0  0  0
    3.7500   -1.2990    0.0000 O   0  0  0  0  0  0  0  0  0  0  0  0
    3.0000    0.0000    0.0000 C   0  0  0  0  0  0  0  0  0  0  0  0
    3.7500    1.2990    0.0000 O   0  0  0  0  0  0  0  0  0  0  0  0
    1.5000    0.0000    0.0000 N   0  0  0  0  0  0  0  0  0  0  0  0
    0.7500   -1.2990    0.0000 C   0  0  0  0  0  0  0  0  0  0  0  0
   -0.7500   -1.2990    0.0000 C   0  0  0  0  0  0  0  0  0  0  0  0
   -1.5000    0.0000    0.0000 C   0  0  0  0  0  0  0  0  0  0  0  0
   -0.7500    1.2990    0.0000 C   0  0  0  0  0  0  0  0  0  0  0  0
    0.7500    1.2990    0.0000 C   0  0  0  0  0  0  0  0  0  0  0  0
    1.5000    2.5981    0.0000 C   0  0  0  0  0  0  0  0  0  0  0  0
    0.7500    3.8971    0.0000 O   0  0  0  0  0  0  0  0  0  0  0  0
    3.0000    2.5981    0.0000 N   0  0  0  0  0  0  0  0  0  0  0  0
    3.7500    3.8971    0.0000 C   0  0  0  0  0  0  0  0  0  0  0  0
    5.2500    3.8971    0.0000 C   0  0  0  0  0  0  0  0  0  0  0  0
    6.0000    5.1962    0.0000 C   0  0  0  0  0  0  0  0  0  0  0  0
    7.5000    5.1962    0.0000 C   0  0  0  0  0  0  0  0  0  0  0  0
    8.2500    6.4952    0.0000 C   0  0  0  0  0  0  0  0  0  0  0  0
    7.5000    7.7942    0.0000 C   0  0  0  0  0  0  0  0  0  0  0  0
    6.0000    7.7942    0.0000 C   0  0  0  0  0  0  0  0  0  0  0  0
    5.2500    6.4952    0.0000 C   0  0  0  0  0  0  0  0  0  0  0  0
    3.0000    5.1962    0.0000 C   0  0  0  0  0  0  0  0  0  0  0  0
    1.5000    5.1962    0.0000 O   0  0  0  0  0  0  0  0  0  0  0  0
    3.7500    6.4952    0.0000 C   0  0  0  0  0  0  0  0  0  0  0  0
    3.0000    7.7942    0.0000 C   0  0  0  0  0  0  0  0  0  0  0  0
    3.7500    9.0933    0.0000 C   0  0  0  0  0  0  0  0  0  0  0  0
    3.0000   10.3923    0.0000 C   0  0  0  0  0  0  0  0  0  0  0  0
    3.7500   11.6913    0.0000 C   0  0  0  0  0  0  0  0  0  0  0  0
    3.0000   12.9904    0.0000 C   0  0  0  0  0  0  0  0  0  0  0  0
    1.5000   12.9904    0.0000 C   0  0  0  0  0  0  0  0  0  0  0  0
    0.7500   11.6913    0.0000 C   0  0  0  0  0  0  0  0  0  0  0  0
    1.5000   10.3923    0.0000 C   0  0  0  0  0  0  0  0  0  0  0  0
    1.5000    7.7942    0.0000 C   0  0  0  0  0  0  0  0  0  0  0  0
    0.7500    6.4952    0.0000 O   0  0  0  0  0  0  0  0  0  0  0  0
    0.7500    9.0933    0.0000 N   0  0  0  0  0  0  0  0  0  0  0  0
   -0.7500    9.0933    0.0000 C   0  0  0  0  0  0  0  0  0  0  0  0
   -1.5000   10.3923    0.0000 C   0  0  0  0  0  0  0  0  0  0  0  0
   -3.0000   10.3923    0.0000 C   0  0  0  0  0  0  0  0  0  0  0  0
   -3.7500   11.6913    0.0000 C   0  0  0  0  0  0  0  0  0  0  0  0
   -5.2500   11.6913    0.0000 C   0  0  0  0  0  0  0  0  0  0  0  0
   -6.0000   10.3923    0.0000 C   0  0  0  0  0  0  0  0  0  0  0  0
   -5.2500    9.0933    0.0000 C   0  0  0  0  0  0  0  0  0  0  0  0
   -3.7500    9.0933    0.0000 C   0  0  0  0  0  0  0  0  0  0  0  0
   -1.5000    7.7942    0.0000 C   0  0  0  0  0  0  0  0  0  0  0  0
   -0.7500    6.4952    0.0000 O   0  0  0  0  0  0  0  0  0  0  0  0
   -3.0000    7.7942    0.0000 N   0  0  0  0  0  0  0  0  0  0  0  0
   -3.7500    6.4952    0.0000 C   0  0  0  0  0  0  0  0  0  0  0  0
   -5.2500    6.4952    0.0000 C   0  0  0  0  0  0  0  0  0  0  0  0
   -6.0000    5.1962    0.0000 C   0  0  0  0  0  0  0  0  0  0  0  0
   -7.5000    5.1962    0.0000 C   0  0  0  0  0  0  0  0  0  0  0  0
   -8.2500    3.8971    0.0000 C   0  0  0  0  0  0  0  0  0  0  0  0
   -7.5000    2.5981    0.0000 C   0  0  0  0  0  0  0  0  0  0  0  0
   -6.0000    2.5981    0.0000 C   0  0  0  0  0  0  0  0  0  0  0  0
   -5.2500    3.8971    0.0000 C   0  0  0  0  0  0  0  0  0  0  0  0
   -3.0000    5.1962    0.0000 C   0  0  0  0  0  0  0  0  0  0  0  0
   -1.5000    5.1962    0.0000 O   0  0  0  0  0  0  0  0  0  0  0  0
   -3.7500    3.8971    0.0000 O   0  0  0  0  0  0  0  0  0  0  0  0
  1  2  1  0
  2  3  1  0
  2  4  1  0
  2  5  1  0
  5  6  1  0
  6  7  2  0
  6  8  1  0
  8  9  1  0
  9 10  1  0
 10 11  1  0
 11 12  1  0
 12 13  1  0
 13 14  1  0
 14 15  2  0
 14 16  1  0
 16 17  1  0
 17 18  1  0
 18 19  1  0
 19 20  2  0
 20 21  1  0
 21 22  2  0
 22 23  1  0
 23 24  2  0
 17 25  1  0
 25 26  1  0
 25 27  1  0
 27 28  1  0
 28 29  1  0
 29 30  1  0
 30 31  2  0
 31 32  1  0
 32 33  2  0
 33 34  1  0
 34 35  2  0
 28 36  1  0
 36 37  2  0
 36 38  1  0
 38 39  1  0
 39 40  1  0
 40 41  1  0
 41 42  2  0
 42 43  1  0
 43 44  2  0
 44 45  1  0
 45 46  2  0
 39 47  1  0
 47 48  2  0
 47 49  1  0
 49 50  1  0
 50 51  1  0
 51 52  1  0
 52 53  2  0
 53 54  1  0
 54 55  2  0
 55 56  1  0
 56 57  2  0
 50 58  1  0
 58 59  2  0
 58 60  1  0
 13  8  1  0
 24 19  1  0
 35 30  1  0
 46 41  1  0
 57 52  1  0
M  END
>  <Title>  (10) 
idAAAJgen4

$$$$

     RDKit          2D

 44 48  0  0  0  0  0  0  0  0999 V2000
   -3.4140    4.5616    0.0000 O   0  0  0  0  0  0  0  0  0  0  0  0
   -4.1640    3.2626    0.0000 C   0  0  0  0  0  0  0  0  0  0  0  0
   -5.6640    3.2626    0.0000 N   0  0  0  0  0  0  0  0  0  0  0  0
   -6.4140    4.5616    0.0000 C   0  0  0  0  0  0  0  0  0  0  0  0
   -7.9140    4.5616    0.0000 C   0  0  0  0  0  0  0  0  0  0  0  0
   -8.6640    5.8606    0.0000 C   0  0  0  0  0  0  0  0  0  0  0  0
   -7.9140    7.1597    0.0000 C   0  0  0  0  0  0  0  0  0  0  0  0
   -8.6640    8.4587    0.0000 C   0  0  0  0  0  0  0  0  0  0  0  0
  -10.1640    8.4587    0.0000 C   0  0  0  0  0  0  0  0  0  0  0  0
  -10.9140    7.1597    0.0000 C   0  0  0  0  0  0  0  0  0  0  0  0
  -10.1640    5.8606    0.0000 C   0  0  0  0  0  0  0  0  0  0  0  0
   -5.6640    5.8606    0.0000 C   0  0  0  0  0  0  0  0  0  0  0  0
   -4.1640    5.8606    0.0000 O   0  0  0  0  0  0  0  0  0  0  0  0
   -6.4140    7.1597    0.0000 N   0  0  0  0  0  0  0  0  0  0  0  0
   -5.6640    8.4587    0.0000 C   0  0  0  0  0  0  0  0  0  0  0  0
   -6.4140    9.7578    0.0000 C   0  0  0  0  0  0  0  0  0  0  0  0
   -5.6640   11.0568    0.0000 C   0  0  0  0  0  0  0  0  0  0  0  0
   -6.4140   12.3558    0.0000 N   0  0  0  0  0  0  0  0  0  0  0  0
   -5.6640   13.6549    0.0000 C   0  0  0  0  0  0  0  0  0  0  0  0
   -6.4140   14.9539    0.0000 O   0  0  0  0  0  0  0  0  0  0  0  0
   -4.1640   13.6549    0.0000 S   0  0  0  0  0  0  0  0  0  0  0  0
   -4.1640   12.1549    0.0000 O   0  0  0  0  0  0  0  0  0  0  0  0
   -4.1640   15.1549    0.0000 O   0  0  0  0  0  0  0  0  0  0  0  0
   -2.6640   13.6549    0.0000 C   0  0  0  0  0  0  0  0  0  0  0  0
   -1.9140   12.3558    0.0000 C   0  0  0  0  0  0  0  0  0  0  0  0
   -0.4140   12.3558    0.0000 C   0  0  0  0  0  0  0  0  0  0  0  0
    0.3360   13.6549    0.0000 C   0  0  0  0  0  0  0  0  0  0  0  0
   -0.4140   14.9539    0.0000 C   0  0  0  0  0  0  0  0  0  0  0  0
   -1.9140   14.9539    0.0000 C   0  0  0  0  0  0  0  0  0  0  0  0
   -4.1640    8.4587    0.0000 C   0  0  0  0  0  0  0  0  0  0  0  0
   -3.4140    7.1597    0.0000 C   0  0  0  0  0  0  0  0  0  0  0  0
   -1.9140    7.1597    0.0000 C   0  0  0  0  0  0  0  0  0  0  0  0
   -1.1640    8.4587    0.0000 C   0  0  0  0  0  0  0  0  0  0  0  0
   -1.9140    9.7578    0.0000 C   0  0  0  0  0  0  0  0  0  0  0  0
   -3.4140    9.7578    0.0000 C   0  0  0  0  0  0  0  0  0  0  0  0
   -3.4140    1.9635    0.0000 O   0  0  0  0  0  0  0  0  0  0  0  0
   -1.9140    1.9635    0.0000 C   0  0  0  0  0  0  0  0  0  0  0  0
   -1.0323    3.1771    0.0000 C   0  0  0  0  0  0  0  0  0  0  0  0
    0.3943    2.7135    0.0000 O   0  0  0  0  0  0  0  0  0  0  0  0
    0.3943    1.2135    0.0000 C   0  0  0  0  0  0  0  0  0  0  0  0
    1.2760    0.0000    0.0000 O   0  0  0  0  0  0  0  0  0  0  0  0
    0.3943   -1.2135    0.0000 C   0  0  0  0  0  0  0  0  0  0  0  0
   -1.0323   -0.7500    0.0000 C   0  0  0  0  0  0  0  0  0  0  0  0
   -1.0323    0.7500    0.0000 C   0  0  0  0  0  0  0  0  0  0  0  0
  1  2  2  0
  2  3  1  0
  3  4  1  0
  4  5  1  0
  5  6  1  0
  6  7  2  0
  7  8  1  0
  8  9  2  0
  9 10  1  0
 10 11  2  0
  4 12  1  0
 12 13  2  0
 12 14  1  0
 14 15  1  0
 15 16  1  0
 16 17  1  0
 17 18  1  0
 18 19  1  0
 19 20  2  0
 19 21  1  0
 21 22  2  0
 21 23  2  0
 21 24  1  0
 24 25  2  0
 25 26  1  0
 26 27  2  0
 27 28  1  0
 28 29  2  0
 15 30  1  0
 30 31  2  0
 31 32  1  0
 32 33  2  0
 33 34  1  0
 34 35  2  0
  2 36  1  0
 36 37  1  0
 37 38  1  0
 38 39  1  0
 39 40  1  0
 40 41  1  0
 41 42  1  0
 42 43  1  0
 43 44  1  0
 11  6  1  0
 29 24  1  0
 35 30  1  0
 44 37  1  0
 44 40  1  0
M  END
>  <Title>  (11) 
idAAAKgen4

$$$$

     RDKit          2D

 69 75  0  0  0  0  0  0  0  0999 V2000
    1.0860   12.3558    0.0000 C   0  0  0  0  0  0  0  0  0  0  0  0
    0.3360   11.0568    0.0000 C   0  0  0  0  0  0  0  0  0  0  0  0
    1.0860    9.7578    0.0000 C   0  0  0  0  0  0  0  0  0  0  0  0
   -1.1640   11.0568    0.0000 C   0  0  0  0  0  0  0  0  0  0  0  0
   -1.9140    9.7578    0.0000 N   0  0  0  0  0  0  0  0  0  0  0  0
   -3.4140    9.7578    0.0000 C   0  0  0  0  0  0  0  0  0  0  0  0
   -4.1640    8.4587    0.0000 C   0  0  0  0  0  0  0  0  0  0  0  0
   -3.4140    7.1597    0.0000 O   0  0  0  0  0  0  0  0  0  0  0  0
   -5.6640    8.4587    0.0000 C   0  0  0  0  0  0  0  0  0  0  0  0
   -6.4140    9.7578    0.0000 C   0  0  0  0  0  0  0  0  0  0  0  0
   -5.6640   11.0568    0.0000 C   0  0  0  0  0  0  0  0  0  0  0  0
   -4.1640   11.0568    0.0000 C   0  0  0  0  0  0  0  0  0  0  0  0
   -3.4140   12.3558    0.0000 C   0  0  0  0  0  0  0  0  0  0  0  0
   -4.1640   13.6549    0.0000 C   0  0  0  0  0  0  0  0  0  0  0  0
   -5.6640   13.6549    0.0000 C   0  0  0  0  0  0  0  0  0  0  0  0
   -6.4140   12.3558    0.0000 C   0  0  0  0  0  0  0  0  0  0  0  0
   -6.4140    7.1597    0.0000 N   0  0  0  0  0  0  0  0  0  0  0  0
   -5.6640    5.8606    0.0000 C   0  0  0  0  0  0  0  0  0  0  0  0
   -4.1640    5.8606    0.0000 O   0  0  0  0  0  0  0  0  0  0  0  0
   -6.4140    4.5616    0.0000 C   0  0  0  0  0  0  0  0  0  0  0  0
   -7.9140    4.5616    0.0000 C   0  0  0  0  0  0  0  0  0  0  0  0
   -8.6640    5.8606    0.0000 C   0  0  0  0  0  0  0  0  0  0  0  0
   -7.9140    7.1597    0.0000 C   0  0  0  0  0  0  0  0  0  0  0  0
   -8.6640    8.4587    0.0000 C   0  0  0  0  0  0  0  0  0  0  0  0
  -10.1640    8.4587    0.0000 C   0  0  0  0  0  0  0  0  0  0  0  0
  -10.9140    7.1597    0.0000 C   0  0  0  0  0  0  0  0  0  0  0  0
  -10.1640    5.8606    0.0000 C   0  0  0  0  0  0  0  0  0  0  0  0
   -5.6640    3.2626    0.0000 N   0  0  0  0  0  0  0  0  0  0  0  0
   -4.1640    3.2626    0.0000 C   0  0  0  0  0  0  0  0  0  0  0  0
   -3.4140    4.5616    0.0000 O   0  0  0  0  0  0  0  0  0  0  0  0
   -3.4140    1.9635    0.0000 O   0  0  0  0  0  0  0  0  0  0  0  0
   -1.9140    1.9635    0.0000 C   0  0  0  0  0  0  0  0  0  0  0  0
   -1.0323    3.1771    0.0000 C   0  0  0  0  0  0  0  0  0  0  0  0
    0.3943    2.7135    0.0000 O   0  0  0  0  0  0  0  0  0  0  0  0
    0.3943    1.2135    0.0000 C   0  0  0  0  0  0  0  0  0  0  0  0
    1.2760    0.0000    0.0000 O   0  0  0  0  0  0  0  0  0  0  0  0
    0.3943   -1.2135    0.0000 C   0  0  0  0  0  0  0  0  0  0  0  0
   -1.0323   -0.7500    0.0000 C   0  0  0  0  0  0  0  0  0  0  0  0
   -1.0323    0.7500    0.0000 C   0  0  0  0  0  0  0  0  0  0  0  0
   -1.1640    8.4587    0.0000 S   0  0  0  0  0  0  0  0  0  0  0  0
   -2.4630    7.7087    0.0000 O   0  0  0  0  0  0  0  0  0  0  0  0
    0.1351    9.2087    0.0000 O   0  0  0  0  0  0  0  0  0  0  0  0
   -0.4140    7.1597    0.0000 C   0  0  0  0  0  0  0  0  0  0  0  0
   -1.1640    5.8606    0.0000 C   0  0  0  0  0  0  0  0  0  0  0  0
   -0.4140    4.5616    0.0000 C   0  0  0  0  0  0  0  0  0  0  0  0
    1.0860    4.5616    0.0000 C   0  0  0  0  0  0  0  0  0  0  0  0
    1.8360    3.2626    0.0000 N   0  0  0  0  0  0  0  0  0  0  0  0
    3.3360    3.2626    0.0000 C   0  0  0  0  0  0  0  0  0  0  0  0
    4.0860    4.5616    0.0000 O   0  0  0  0  0  0  0  0  0  0  0  0
    4.0860    1.9635    0.0000 C   0  0  0  0  0  0  0  0  0  0  0  0
    5.5860    1.9635    0.0000 C   0  0  0  0  0  0  0  0  0  0  0  0
    6.3360    3.2626    0.0000 C   0  0  0  0  0  0  0  0  0  0  0  0
    5.5860    4.5616    0.0000 C   0  0  0  0  0  0  0  0  0  0  0  0
    6.3360    5.8606    0.0000 C   0  0  0  0  0  0  0  0  0  0  0  0
    7.8360    5.8606    0.0000 C   0  0  0  0  0  0  0  0  0  0  0  0
    8.5860    4.5616    0.0000 C   0  0  0  0  0  0  0  0  0  0  0  0
    7.8360    3.2626    0.0000 C   0  0  0  0  0  0  0  0  0  0  0  0
    3.3360    0.6645    0.0000 N   0  0  0  0  0  0  0  0  0  0  0  0
    4.0860   -0.6346    0.0000 C   0  0  0  0  0  0  0  0  0  0  0  0
    5.5860   -0.6346    0.0000 O   0  0  0  0  0  0  0  0  0  0  0  0
    3.3360   -1.9336    0.0000 O   0  0  0  0  0  0  0  0  0  0  0  0
    4.0860   -3.2326    0.0000 C   0  0  0  0  0  0  0  0  0  0  0  0
    3.3360   -4.5317    0.0000 C   0  0  0  0  0  0  0  0  0  0  0  0
    4.0860   -5.8307    0.0000 C   0  0  0  0  0  0  0  0  0  0  0  0
    5.5860   -5.8307    0.0000 C   0  0  0  0  0  0  0  0  0  0  0  0
    6.3360   -4.5317    0.0000 C   0  0  0  0  0  0  0  0  0  0  0  0
    5.5860   -3.2326    0.0000 C   0  0  0  0  0  0  0  0  0  0  0  0
    1.8360    5.8606    0.0000 C   0  0  0  0  0  0  0  0  0  0  0  0
    1.0860    7.1597    0.0000 C   0  0  0  0  0  0  0  0  0  0  0  0
  1  2  1  0
  2  3  1  0
  2  4  1  0
  4  5  1  0
  5  6  1  0
  6  7  1  0
  7  8  1  0
  7  9  1  0
  9 10  1  0
 10 11  1  0
 11 12  2  0
 12 13  1  0
 13 14  2  0
 14 15  1  0
 15 16  2  0
  9 17  1  0
 17 18  1  0
 18 19  2  0
 18 20  1  0
 20 21  1  0
 21 22  1  0
 22 23  2  0
 23 24  1  0
 24 25  2  0
 25 26  1  0
 26 27  2  0
 20 28  1  0
 28 29  1  0
 29 30  2  0
 29 31  1  0
 31 32  1  0
 32 33  1  0
 33 34  1  0
 34 35  1  0
 35 36  1  0
 36 37  1  0
 37 38  1  0
 38 39  1  0
  5 40  1  0
 40 41  2  0
 40 42  2  0
 40 43  1  0
 43 44  2  0
 44 45  1  0
 45 46  2  0
 46 47  1  0
 47 48  1  0
 48 49  2  0
 48 50  1  0
 50 51  1  0
 51 52  1  0
 52 53  2  0
 53 54  1  0
 54 55  2  0
 55 56  1  0
 56 57  2  0
 50 58  1  0
 58 59  1  0
 59 60  2  0
 59 61  1  0
 61 62  1  0
 62 63  1  0
 63 64  1  0
 64 65  1  0
 65 66  1  0
 66 67  1  0
 46 68  1  0
 68 69  2  0
 16 11  1  0
 27 22  1  0
 39 32  1  0
 69 43  1  0
 39 35  1  0
 57 52  1  0
 67 62  1  0
M  END
>  <Title>  (12) 
idAAALgen4

$$$$

     RDKit          2D

 66 72  0  0  0  0  0  0  0  0999 V2000
    5.7286   -1.0590    0.0000 O   0  0  0  0  0  0  0  0  0  0  0  0
    5.4681   -2.5362    0.0000 C   0  0  0  0  0  0  0  0  0  0  0  0
    4.0586   -3.0492    0.0000 N   0  0  0  0  0  0  0  0  0  0  0  0
    2.9095   -2.0850    0.0000 C   0  0  0  0  0  0  0  0  0  0  0  0
    1.5000   -2.5981    0.0000 C   0  0  0  0  0  0  0  0  0  0  0  0
    0.7500   -1.2990    0.0000 C   0  0  0  0  0  0  0  0  0  0  0  0
    1.5000    0.0000    0.0000 C   0  0  0  0  0  0  0  0  0  0  0  0
    0.7500    1.2990    0.0000 C   0  0  0  0  0  0  0  0  0  0  0  0
   -0.7500    1.2990    0.0000 C   0  0  0  0  0  0  0  0  0  0  0  0
   -1.5000    0.0000    0.0000 C   0  0  0  0  0  0  0  0  0  0  0  0
   -0.7500   -1.2990    0.0000 C   0  0  0  0  0  0  0  0  0  0  0  0
    1.7605   -4.0753    0.0000 C   0  0  0  0  0  0  0  0  0  0  0  0
    0.3509   -3.5623    0.0000 C   0  0  0  0  0  0  0  0  0  0  0  0
    6.6172   -3.5004    0.0000 N   0  0  0  0  0  0  0  0  0  0  0  0
    8.0268   -2.9873    0.0000 C   0  0  0  0  0  0  0  0  0  0  0  0
    8.4402   -1.5455    0.0000 C   0  0  0  0  0  0  0  0  0  0  0  0
    9.9393   -1.4931    0.0000 C   0  0  0  0  0  0  0  0  0  0  0  0
   10.4523   -2.9026    0.0000 C   0  0  0  0  0  0  0  0  0  0  0  0
    9.2703   -3.8261    0.0000 C   0  0  0  0  0  0  0  0  0  0  0  0
    9.3227   -5.3252    0.0000 C   0  0  0  0  0  0  0  0  0  0  0  0
    8.0506   -6.1201    0.0000 O   0  0  0  0  0  0  0  0  0  0  0  0
   10.6471   -6.0294    0.0000 N   0  0  0  0  0  0  0  0  0  0  0  0
   10.6994   -7.5285    0.0000 C   0  0  0  0  0  0  0  0  0  0  0  0
   12.0238   -8.2327    0.0000 C   0  0  0  0  0  0  0  0  0  0  0  0
   12.0762   -9.7318    0.0000 C   0  0  0  0  0  0  0  0  0  0  0  0
   10.8041  -10.5267    0.0000 C   0  0  0  0  0  0  0  0  0  0  0  0
   10.8565  -12.0258    0.0000 C   0  0  0  0  0  0  0  0  0  0  0  0
   12.1809  -12.7300    0.0000 C   0  0  0  0  0  0  0  0  0  0  0  0
   13.4530  -11.9351    0.0000 C   0  0  0  0  0  0  0  0  0  0  0  0
   13.4006  -10.4360    0.0000 C   0  0  0  0  0  0  0  0  0  0  0  0
    9.4274   -8.3234    0.0000 C   0  0  0  0  0  0  0  0  0  0  0  0
    8.1029   -7.6192    0.0000 O   0  0  0  0  0  0  0  0  0  0  0  0
    9.4797   -9.8225    0.0000 N   0  0  0  0  0  0  0  0  0  0  0  0
    8.2076  -10.6174    0.0000 C   0  0  0  0  0  0  0  0  0  0  0  0
    6.8832   -9.9132    0.0000 C   0  0  0  0  0  0  0  0  0  0  0  0
    5.6111  -10.7080    0.0000 C   0  0  0  0  0  0  0  0  0  0  0  0
    5.6635  -12.2071    0.0000 C   0  0  0  0  0  0  0  0  0  0  0  0
    4.3914  -13.0020    0.0000 C   0  0  0  0  0  0  0  0  0  0  0  0
    3.0670  -12.2978    0.0000 C   0  0  0  0  0  0  0  0  0  0  0  0
    3.0146  -10.7987    0.0000 C   0  0  0  0  0  0  0  0  0  0  0  0
    4.2867  -10.0038    0.0000 C   0  0  0  0  0  0  0  0  0  0  0  0
    8.2600  -12.1164    0.0000 C   0  0  0  0  0  0  0  0  0  0  0  0
    9.5844  -12.8207    0.0000 O   0  0  0  0  0  0  0  0  0  0  0  0
    6.9879  -12.9113    0.0000 N   0  0  0  0  0  0  0  0  0  0  0  0
    7.0403  -14.4104    0.0000 C   0  0  0  0  0  0  0  0  0  0  0  0
    5.7682  -15.2053    0.0000 C   0  0  0  0  0  0  0  0  0  0  0  0
    4.4438  -14.5011    0.0000 C   0  0  0  0  0  0  0  0  0  0  0  0
    3.1717  -15.2960    0.0000 C   0  0  0  0  0  0  0  0  0  0  0  0
    1.8473  -14.5918    0.0000 C   0  0  0  0  0  0  0  0  0  0  0  0
    1.7949  -13.0927    0.0000 C   0  0  0  0  0  0  0  0  0  0  0  0
    3.0670  -12.2978    0.0000 C   0  0  0  0  0  0  0  0  0  0  0  0
    4.3914  -13.0020    0.0000 C   0  0  0  0  0  0  0  0  0  0  0  0
    8.3647  -15.1146    0.0000 C   0  0  0  0  0  0  0  0  0  0  0  0
    9.6368  -14.3197    0.0000 O   0  0  0  0  0  0  0  0  0  0  0  0
    8.4170  -16.6137    0.0000 N   0  0  0  0  0  0  0  0  0  0  0  0
    9.7414  -17.3179    0.0000 C   0  0  0  0  0  0  0  0  0  0  0  0
    9.7938  -18.8170    0.0000 C   0  0  0  0  0  0  0  0  0  0  0  0
    8.5217  -19.6119    0.0000 C   0  0  0  0  0  0  0  0  0  0  0  0
    7.1973  -18.9077    0.0000 C   0  0  0  0  0  0  0  0  0  0  0  0
    5.9252  -19.7026    0.0000 C   0  0  0  0  0  0  0  0  0  0  0  0
    5.9776  -21.2016    0.0000 C   0  0  0  0  0  0  0  0  0  0  0  0
    7.3020  -21.9058    0.0000 C   0  0  0  0  0  0  0  0  0  0  0  0
    8.5741  -21.1110    0.0000 C   0  0  0  0  0  0  0  0  0  0  0  0
   11.0135  -16.5230    0.0000 C   0  0  0  0  0  0  0  0  0  0  0  0
   12.3379  -17.2272    0.0000 O   0  0  0  0  0  0  0  0  0  0  0  0
   10.9612  -15.0239    0.0000 O   0  0  0  0  0  0  0  0  0  0  0  0
  1  2  2  0
  2  3  1  0
  3  4  1  0
  4  5  1  0
  5  6  1  0
  6  7  2  0
  7  8  1  0
  8  9  2  0
  9 10  1  0
 10 11  2  0
  5 12  1  0
 12 13  1  0
  2 14  1  0
 14 15  1  0
 15 16  1  0
 16 17  1  0
 17 18  1  0
 18 19  1  0
 19 20  1  0
 20 21  2  0
 20 22  1  0
 22 23  1  0
 23 24  1  0
 24 25  1  0
 25 26  2  0
 26 27  1  0
 27 28  2  0
 28 29  1  0
 29 30  2  0
 23 31  1  0
 31 32  2  0
 31 33  1  0
 33 34  1  0
 34 35  1  0
 35 36  1  0
 36 37  2  0
 37 38  1  0
 38 39  2  0
 39 40  1  0
 40 41  2  0
 34 42  1  0
 42 43  2  0
 42 44  1  0
 44 45  1  0
 45 46  1  0
 46 47  1  0
 47 48  2  0
 48 49  1  0
 49 50  2  0
 50 51  1  0
 51 52  2  0
 45 53  1  0
 53 54  2  0
 53 55  1  0
 55 56  1  0
 56 57  1  0
 57 58  1  0
 58 59  2  0
 59 60  1  0
 60 61  2  0
 61 62  1  0
 62 63  2  0
 56 64  1  0
 64 65  2  0
 64 66  1  0
 13  5  1  0
 19 15  1  0
 30 25  1  0
 41 36  1  0
 52 47  1  0
 63 58  1  0
 11  6  1  0
M  END
>  <Title>  (13) 
idAAAMgen4

$$$$

     RDKit          2D

 26 28  0  0  0  0  0  0  0  0999 V2000
    3.0000    0.0000    0.0000 C   0  0  0  0  0  0  0  0  0  0  0  0
    1.5000    0.0000    0.0000 C   0  0  0  0  0  0  0  0  0  0  0  0
    0.7500   -1.2990    0.0000 C   0  0  0  0  0  0  0  0  0  0  0  0
   -0.7500   -1.2990    0.0000 C   0  0  0  0  0  0  0  0  0  0  0  0
   -1.5000    0.0000    0.0000 C   0  0  0  0  0  0  0  0  0  0  0  0
   -3.0000    0.0000    0.0000 C   0  0  0  0  0  0  0  0  0  0  0  0
   -3.7500    1.2990    0.0000 N   0  0  0  0  0  0  0  0  0  0  0  0
   -5.2500    1.2990    0.0000 C   0  0  0  0  0  0  0  0  0  0  0  0
   -6.0000    0.0000    0.0000 O   0  0  0  0  0  0  0  0  0  0  0  0
   -6.0000    2.5981    0.0000 C   0  0  0  0  0  0  0  0  0  0  0  0
   -5.2500    3.8971    0.0000 C   0  0  0  0  0  0  0  0  0  0  0  0
   -6.0000    5.1962    0.0000 C   0  0  0  0  0  0  0  0  0  0  0  0
   -7.5000    5.1962    0.0000 C   0  0  0  0  0  0  0  0  0  0  0  0
   -8.2500    6.4952    0.0000 N   0  0  0  0  0  0  0  0  0  0  0  0
   -7.5000    7.7942    0.0000 C   0  0  0  0  0  0  0  0  0  0  0  0
   -6.0000    7.7942    0.0000 O   0  0  0  0  0  0  0  0  0  0  0  0
   -8.2500    9.0933    0.0000 C   0  0  0  0  0  0  0  0  0  0  0  0
   -7.5000   10.3923    0.0000 C   0  0  0  0  0  0  0  0  0  0  0  0
   -8.2500   11.6913    0.0000 C   0  0  0  0  0  0  0  0  0  0  0  0
   -9.7500   11.6913    0.0000 C   0  0  0  0  0  0  0  0  0  0  0  0
  -10.5000   10.3923    0.0000 C   0  0  0  0  0  0  0  0  0  0  0  0
   -9.7500    9.0933    0.0000 C   0  0  0  0  0  0  0  0  0  0  0  0
   -8.2500    3.8971    0.0000 C   0  0  0  0  0  0  0  0  0  0  0  0
   -7.5000    2.5981    0.0000 C   0  0  0  0  0  0  0  0  0  0  0  0
   -0.7500    1.2990    0.0000 C   0  0  0  0  0  0  0  0  0  0  0  0
    0.7500    1.2990    0.0000 C   0  0  0  0  0  0  0  0  0  0  0  0
  1  2  1  0
  2  3  2  0
  3  4  1  0
  4  5  2  0
  5  6  1  0
  6  7  1  0
  7  8  1  0
  8  9  2  0
  8 10  1  0
 10 11  2  0
 11 12  1  0
 12 13  2  0
 13 14  1  0
 14 15  1  0
 15 16  2  0
 15 17  1  0
 17 18  2  0
 18 19  1  0
 19 20  2  0
 20 21  1  0
 21 22  2  0
 13 23  1  0
 23 24  2  0
  5 25  1  0
 25 26  2  0
 26  2  1  0
 24 10  1  0
 22 17  1  0
M  END
>  <Title>  (14) 
idAAANgen4

$$$$

     RDKit          2D

 59 63  0  0  0  0  0  0  0  0999 V2000
   13.5000   -2.5981    0.0000 C   0  0  0  0  0  0  0  0  0  0  0  0
   12.7500   -1.2990    0.0000 C   0  0  0  0  0  0  0  0  0  0  0  0
   11.2500   -1.2990    0.0000 C   0  0  0  0  0  0  0  0  0  0  0  0
   13.5000   -0.0000    0.0000 C   0  0  0  0  0  0  0  0  0  0  0  0
   12.7500    1.2990    0.0000 C   0  0  0  0  0  0  0  0  0  0  0  0
   13.5000    2.5981    0.0000 N   0  0  0  0  0  0  0  0  0  0  0  0
   12.7500    3.8971    0.0000 S   0  0  0  0  0  0  0  0  0  0  0  0
   14.0490    4.6471    0.0000 O   0  0  0  0  0  0  0  0  0  0  0  0
   11.4510    3.1471    0.0000 O   0  0  0  0  0  0  0  0  0  0  0  0
   12.0000    5.1962    0.0000 C   0  0  0  0  0  0  0  0  0  0  0  0
   10.5000    5.1962    0.0000 C   0  0  0  0  0  0  0  0  0  0  0  0
    9.7500    6.4952    0.0000 C   0  0  0  0  0  0  0  0  0  0  0  0
   10.5000    7.7942    0.0000 C   0  0  0  0  0  0  0  0  0  0  0  0
   12.0000    7.7942    0.0000 C   0  0  0  0  0  0  0  0  0  0  0  0
   12.7500    6.4952    0.0000 C   0  0  0  0  0  0  0  0  0  0  0  0
   11.2500    1.2990    0.0000 C   0  0  0  0  0  0  0  0  0  0  0  0
   10.5000    2.5981    0.0000 O   0  0  0  0  0  0  0  0  0  0  0  0
   10.5000   -0.0000    0.0000 N   0  0  0  0  0  0  0  0  0  0  0  0
    9.0000   -0.0000    0.0000 C   0  0  0  0  0  0  0  0  0  0  0  0
    8.2500   -1.2990    0.0000 C   0  0  0  0  0  0  0  0  0  0  0  0
    6.7500   -1.2990    0.0000 C   0  0  0  0  0  0  0  0  0  0  0  0
    6.0000   -2.5981    0.0000 C   0  0  0  0  0  0  0  0  0  0  0  0
    4.5000   -2.5981    0.0000 C   0  0  0  0  0  0  0  0  0  0  0  0
    3.7500   -1.2990    0.0000 C   0  0  0  0  0  0  0  0  0  0  0  0
    4.5000    0.0000    0.0000 C   0  0  0  0  0  0  0  0  0  0  0  0
    6.0000   -0.0000    0.0000 C   0  0  0  0  0  0  0  0  0  0  0  0
    8.2500    1.2990    0.0000 C   0  0  0  0  0  0  0  0  0  0  0  0
    9.0000    2.5981    0.0000 O   0  0  0  0  0  0  0  0  0  0  0  0
    6.7500    1.2990    0.0000 N   0  0  0  0  0  0  0  0  0  0  0  0
    6.0000    2.5981    0.0000 C   0  0  0  0  0  0  0  0  0  0  0  0
    6.7500    3.8971    0.0000 C   0  0  0  0  0  0  0  0  0  0  0  0
    6.0000    5.1962    0.0000 C   0  0  0  0  0  0  0  0  0  0  0  0
    6.7500    6.4952    0.0000 C   0  0  0  0  0  0  0  0  0  0  0  0
    6.0000    7.7942    0.0000 C   0  0  0  0  0  0  0  0  0  0  0  0
    4.5000    7.7942    0.0000 C   0  0  0  0  0  0  0  0  0  0  0  0
    3.7500    6.4952    0.0000 C   0  0  0  0  0  0  0  0  0  0  0  0
    4.5000    5.1962    0.0000 C   0  0  0  0  0  0  0  0  0  0  0  0
    4.5000    2.5981    0.0000 C   0  0  0  0  0  0  0  0  0  0  0  0
    3.7500    1.2990    0.0000 O   0  0  0  0  0  0  0  0  0  0  0  0
    3.7500    3.8971    0.0000 N   0  0  0  0  0  0  0  0  0  0  0  0
    2.2500    3.8971    0.0000 C   0  0  0  0  0  0  0  0  0  0  0  0
    1.5000    2.5981    0.0000 C   0  0  0  0  0  0  0  0  0  0  0  0
    0.0000    2.5981    0.0000 C   0  0  0  0  0  0  0  0  0  0  0  0
   -0.7500    1.2990    0.0000 C   0  0  0  0  0  0  0  0  0  0  0  0
   -2.2500    1.2990    0.0000 C   0  0  0  0  0  0  0  0  0  0  0  0
   -3.0000    2.5981    0.0000 C   0  0  0  0  0  0  0  0  0  0  0  0
   -2.2500    3.8971    0.0000 C   0  0  0  0  0  0  0  0  0  0  0  0
   -0.7500    3.8971    0.0000 C   0  0  0  0  0  0  0  0  0  0  0  0
    1.5000    5.1962    0.0000 C   0  0  0  0  0  0  0  0  0  0  0  0
    2.2500    6.4952    0.0000 O   0  0  0  0  0  0  0  0  0  0  0  0
    0.0000    5.1962    0.0000 N   0  0  0  0  0  0  0  0  0  0  0  0
   -0.7500    6.4952    0.0000 C   0  0  0  0  0  0  0  0  0  0  0  0
   -2.2500    6.4952    0.0000 C   0  0  0  0  0  0  0  0  0  0  0  0
   -3.0000    7.7942    0.0000 C   0  0  0  0  0  0  0  0  0  0  0  0
   -4.5000    7.7942    0.0000 C   0  0  0  0  0  0  0  0  0  0  0  0
   -5.2500    9.0933    0.0000 C   0  0  0  0  0  0  0  0  0  0  0  0
   -4.5000   10.3923    0.0000 C   0  0  0  0  0  0  0  0  0  0  0  0
   -3.0000   10.3923    0.0000 C   0  0  0  0  0  0  0  0  0  0  0  0
   -2.2500    9.0933    0.0000 C   0  0  0  0  0  0  0  0  0  0  0  0
  1  2  1  0
  2  3  1  0
  2  4  1  0
  4  5  1  0
  5  6  1  0
  6  7  1  0
  7  8  2  0
  7  9  2  0
  7 10  1  0
 10 11  2  0
 11 12  1  0
 12 13  2  0
 13 14  1  0
 14 15  2  0
  5 16  1  0
 16 17  2  0
 16 18  1  0
 18 19  1  0
 19 20  1  0
 20 21  1  0
 21 22  2  0
 22 23  1  0
 23 24  2  0
 24 25  1  0
 25 26  2  0
 19 27  1  0
 27 28  2  0
 27 29  1  0
 29 30  1  0
 30 31  1  0
 31 32  1  0
 32 33  2  0
 33 34  1  0
 34 35  2  0
 35 36  1  0
 36 37  2  0
 30 38  1  0
 38 39  2  0
 38 40  1  0
 40 41  1  0
 41 42  1  0
 42 43  1  0
 43 44  2  0
 44 45  1  0
 45 46  2  0
 46 47  1  0
 47 48  2  0
 41 49  1  0
 49 50  2  0
 49 51  1  0
 51 52  1  0
 52 53  1  0
 53 54  1  0
 54 55  2  0
 55 56  1  0
 56 57  2  0
 57 58  1  0
 58 59  2  0
 15 10  1  0
 26 21  1  0
 37 32  1  0
 48 43  1  0
 59 54  1  0
M  END
>  <Title>  (15) 
idAAAOgen4

$$$$

     RDKit          2D

 50 54  0  0  0  0  0  0  0  0999 V2000
    3.3360    5.8606    0.0000 C   0  0  0  0  0  0  0  0  0  0  0  0
    2.5860    7.1597    0.0000 C   0  0  0  0  0  0  0  0  0  0  0  0
    1.0860    7.1597    0.0000 C   0  0  0  0  0  0  0  0  0  0  0  0
    0.3360    5.8606    0.0000 C   0  0  0  0  0  0  0  0  0  0  0  0
    1.0860    4.5616    0.0000 C   0  0  0  0  0  0  0  0  0  0  0  0
    0.3360    8.4587    0.0000 N   0  0  0  0  0  0  0  0  0  0  0  0
   -1.1640    8.4587    0.0000 C   0  0  0  0  0  0  0  0  0  0  0  0
   -1.9140    7.1597    0.0000 O   0  0  0  0  0  0  0  0  0  0  0  0
   -1.9140    9.7578    0.0000 C   0  0  0  0  0  0  0  0  0  0  0  0
   -1.1640   11.0568    0.0000 C   0  0  0  0  0  0  0  0  0  0  0  0
    0.3360   11.0568    0.0000 C   0  0  0  0  0  0  0  0  0  0  0  0
    1.0860    9.7578    0.0000 C   0  0  0  0  0  0  0  0  0  0  0  0
    2.5860    9.7578    0.0000 C   0  0  0  0  0  0  0  0  0  0  0  0
    3.3360   11.0568    0.0000 C   0  0  0  0  0  0  0  0  0  0  0  0
    2.5860   12.3558    0.0000 C   0  0  0  0  0  0  0  0  0  0  0  0
    1.0860   12.3558    0.0000 C   0  0  0  0  0  0  0  0  0  0  0  0
   -3.4140    9.7578    0.0000 N   0  0  0  0  0  0  0  0  0  0  0  0
   -4.1640    8.4587    0.0000 C   0  0  0  0  0  0  0  0  0  0  0  0
   -3.4140    7.1597    0.0000 O   0  0  0  0  0  0  0  0  0  0  0  0
   -5.6640    8.4587    0.0000 C   0  0  0  0  0  0  0  0  0  0  0  0
   -6.4140    9.7578    0.0000 C   0  0  0  0  0  0  0  0  0  0  0  0
   -5.6640   11.0568    0.0000 C   0  0  0  0  0  0  0  0  0  0  0  0
   -4.1640   11.0568    0.0000 C   0  0  0  0  0  0  0  0  0  0  0  0
   -3.4140   12.3558    0.0000 C   0  0  0  0  0  0  0  0  0  0  0  0
   -4.1640   13.6549    0.0000 C   0  0  0  0  0  0  0  0  0  0  0  0
   -5.6640   13.6549    0.0000 C   0  0  0  0  0  0  0  0  0  0  0  0
   -6.4140   12.3558    0.0000 C   0  0  0  0  0  0  0  0  0  0  0  0
   -6.4140    7.1597    0.0000 N   0  0  0  0  0  0  0  0  0  0  0  0
   -5.6640    5.8606    0.0000 C   0  0  0  0  0  0  0  0  0  0  0  0
   -4.1640    5.8606    0.0000 O   0  0  0  0  0  0  0  0  0  0  0  0
   -6.4140    4.5616    0.0000 C   0  0  0  0  0  0  0  0  0  0  0  0
   -7.9140    4.5616    0.0000 C   0  0  0  0  0  0  0  0  0  0  0  0
   -8.6640    5.8606    0.0000 C   0  0  0  0  0  0  0  0  0  0  0  0
   -7.9140    7.1597    0.0000 C   0  0  0  0  0  0  0  0  0  0  0  0
   -8.6640    8.4587    0.0000 C   0  0  0  0  0  0  0  0  0  0  0  0
  -10.1640    8.4587    0.0000 C   0  0  0  0  0  0  0  0  0  0  0  0
  -10.9140    7.1597    0.0000 C   0  0  0  0  0  0  0  0  0  0  0  0
  -10.1640    5.8606    0.0000 C   0  0  0  0  0  0  0  0  0  0  0  0
   -5.6640    3.2626    0.0000 N   0  0  0  0  0  0  0  0  0  0  0  0
   -4.1640    3.2626    0.0000 C   0  0  0  0  0  0  0  0  0  0  0  0
   -3.4140    4.5616    0.0000 O   0  0  0  0  0  0  0  0  0  0  0  0
   -3.4140    1.9635    0.0000 O   0  0  0  0  0  0  0  0  0  0  0  0
   -1.9140    1.9635    0.0000 C   0  0  0  0  0  0  0  0  0  0  0  0
   -1.0323    3.1771    0.0000 C   0  0  0  0  0  0  0  0  0  0  0  0
    0.3943    2.7135    0.0000 O   0  0  0  0  0  0  0  0  0  0  0  0
    0.3943    1.2135    0.0000 C   0  0  0  0  0  0  0  0  0  0  0  0
    1.2760    0.0000    0.0000 O   0  0  0  0  0  0  0  0  0  0  0  0
    0.3943   -1.2135    0.0000 C   0  0  0  0  0  0  0  0  0  0  0  0
   -1.0323   -0.7500    0.0000 C   0  0  0  0  0  0  0  0  0  0  0  0
   -1.0323    0.7500    0.0000 C   0  0  0  0  0  0  0  0  0  0  0  0
  1  2  1  0
  2  3  1  0
  3  4  1  0
  4  5  1  0
  3  6  1  0
  6  7  1  0
  7  8  2  0
  7  9  1  0
  9 10  1  0
 10 11  1  0
 11 12  2  0
 12 13  1  0
 13 14  2  0
 14 15  1  0
 15 16  2  0
  9 17  1  0
 17 18  1  0
 18 19  2  0
 18 20  1  0
 20 21  1  0
 21 22  1  0
 22 23  2  0
 23 24  1  0
 24 25  2  0
 25 26  1  0
 26 27  2  0
 20 28  1  0
 28 29  1  0
 29 30  2  0
 29 31  1  0
 31 32  1  0
 32 33  1  0
 33 34  2  0
 34 35  1  0
 35 36  2  0
 36 37  1  0
 37 38  2  0
 31 39  1  0
 39 40  1  0
 40 41  2  0
 40 42  1  0
 42 43  1  0
 43 44  1  0
 44 45  1  0
 45 46  1  0
 46 47  1  0
 47 48  1  0
 48 49  1  0
 49 50  1  0
 16 11  1  0
 27 22  1  0
 38 33  1  0
 50 43  1  0
 50 46  1  0
M  END
>  <Title>  (16) 
idAAAPgen4

$$$$

     RDKit          2D

 56 60  0  0  0  0  0  0  0  0999 V2000
    3.7500   -1.2990    0.0000 N   0  0  0  0  0  0  0  0  0  0  0  0
    3.0000    0.0000    0.0000 C   0  0  0  0  0  0  0  0  0  0  0  0
    3.7500    1.2990    0.0000 O   0  0  0  0  0  0  0  0  0  0  0  0
    1.5000    0.0000    0.0000 C   0  0  0  0  0  0  0  0  0  0  0  0
    0.7500   -1.2990    0.0000 C   0  0  0  0  0  0  0  0  0  0  0  0
   -0.7500   -1.2990    0.0000 C   0  0  0  0  0  0  0  0  0  0  0  0
   -1.5000    0.0000    0.0000 C   0  0  0  0  0  0  0  0  0  0  0  0
   -0.7500    1.2990    0.0000 C   0  0  0  0  0  0  0  0  0  0  0  0
    0.7500    1.2990    0.0000 C   0  0  0  0  0  0  0  0  0  0  0  0
    1.5000    2.5981    0.0000 C   0  0  0  0  0  0  0  0  0  0  0  0
    3.0000    2.5981    0.0000 O   0  0  0  0  0  0  0  0  0  0  0  0
    0.7500    3.8971    0.0000 N   0  0  0  0  0  0  0  0  0  0  0  0
    1.5000    5.1962    0.0000 C   0  0  0  0  0  0  0  0  0  0  0  0
    0.7500    6.4952    0.0000 C   0  0  0  0  0  0  0  0  0  0  0  0
    1.5000    7.7942    0.0000 C   0  0  0  0  0  0  0  0  0  0  0  0
    3.0000    7.7942    0.0000 C   0  0  0  0  0  0  0  0  0  0  0  0
    3.7500    9.0933    0.0000 C   0  0  0  0  0  0  0  0  0  0  0  0
    3.0000   10.3923    0.0000 C   0  0  0  0  0  0  0  0  0  0  0  0
    1.5000   10.3923    0.0000 C   0  0  0  0  0  0  0  0  0  0  0  0
    0.7500    9.0933    0.0000 C   0  0  0  0  0  0  0  0  0  0  0  0
    3.0000    5.1962    0.0000 C   0  0  0  0  0  0  0  0  0  0  0  0
    3.7500    3.8971    0.0000 O   0  0  0  0  0  0  0  0  0  0  0  0
    3.7500    6.4952    0.0000 N   0  0  0  0  0  0  0  0  0  0  0  0
    5.2500    6.4952    0.0000 C   0  0  0  0  0  0  0  0  0  0  0  0
    6.0000    7.7942    0.0000 C   0  0  0  0  0  0  0  0  0  0  0  0
    7.5000    7.7942    0.0000 C   0  0  0  0  0  0  0  0  0  0  0  0
    8.2500    6.4952    0.0000 C   0  0  0  0  0  0  0  0  0  0  0  0
    9.7500    6.4952    0.0000 C   0  0  0  0  0  0  0  0  0  0  0  0
   10.5000    7.7942    0.0000 C   0  0  0  0  0  0  0  0  0  0  0  0
    9.7500    9.0933    0.0000 C   0  0  0  0  0  0  0  0  0  0  0  0
    8.2500    9.0933    0.0000 C   0  0  0  0  0  0  0  0  0  0  0  0
    6.0000    5.1962    0.0000 C   0  0  0  0  0  0  0  0  0  0  0  0
    5.2500    3.8971    0.0000 O   0  0  0  0  0  0  0  0  0  0  0  0
    7.5000    5.1962    0.0000 N   0  0  0  0  0  0  0  0  0  0  0  0
    8.2500    3.8971    0.0000 C   0  0  0  0  0  0  0  0  0  0  0  0
    9.7500    3.8971    0.0000 C   0  0  0  0  0  0  0  0  0  0  0  0
   10.5000    2.5981    0.0000 C   0  0  0  0  0  0  0  0  0  0  0  0
    9.7500    1.2990    0.0000 C   0  0  0  0  0  0  0  0  0  0  0  0
   10.5000   -0.0000    0.0000 C   0  0  0  0  0  0  0  0  0  0  0  0
   12.0000   -0.0000    0.0000 C   0  0  0  0  0  0  0  0  0  0  0  0
   12.7500    1.2990    0.0000 C   0  0  0  0  0  0  0  0  0  0  0  0
   12.0000    2.5981    0.0000 C   0  0  0  0  0  0  0  0  0  0  0  0
    7.5000    2.5981    0.0000 C   0  0  0  0  0  0  0  0  0  0  0  0
    6.0000    2.5981    0.0000 O   0  0  0  0  0  0  0  0  0  0  0  0
    8.2500    1.2990    0.0000 N   0  0  0  0  0  0  0  0  0  0  0  0
    7.5000    0.0000    0.0000 C   0  0  0  0  0  0  0  0  0  0  0  0
    8.2500   -1.2990    0.0000 C   0  0  0  0  0  0  0  0  0  0  0  0
    7.5000   -2.5981    0.0000 C   0  0  0  0  0  0  0  0  0  0  0  0
    6.0000   -2.5981    0.0000 C   0  0  0  0  0  0  0  0  0  0  0  0
    5.2500   -3.8971    0.0000 C   0  0  0  0  0  0  0  0  0  0  0  0
    6.0000   -5.1962    0.0000 C   0  0  0  0  0  0  0  0  0  0  0  0
    7.5000   -5.1962    0.0000 C   0  0  0  0  0  0  0  0  0  0  0  0
    8.2500   -3.8971    0.0000 C   0  0  0  0  0  0  0  0  0  0  0  0
    6.0000    0.0000    0.0000 C   0  0  0  0  0  0  0  0  0  0  0  0
    5.2500    1.2990    0.0000 O   0  0  0  0  0  0  0  0  0  0  0  0
    5.2500   -1.2990    0.0000 O   0  0  0  0  0  0  0  0  0  0  0  0
  1  2  1  0
  2  3  2  0
  2  4  1  0
  4  5  1  0
  5  6  1  0
  6  7  1  0
  7  8  1  0
  8  9  1  0
  9 10  1  0
 10 11  2  0
 10 12  1  0
 12 13  1  0
 13 14  1  0
 14 15  1  0
 15 16  2  0
 16 17  1  0
 17 18  2  0
 18 19  1  0
 19 20  2  0
 13 21  1  0
 21 22  2  0
 21 23  1  0
 23 24  1  0
 24 25  1  0
 25 26  1  0
 26 27  2  0
 27 28  1  0
 28 29  2  0
 29 30  1  0
 30 31  2  0
 24 32  1  0
 32 33  2  0
 32 34  1  0
 34 35  1  0
 35 36  1  0
 36 37  1  0
 37 38  2  0
 38 39  1  0
 39 40  2  0
 40 41  1  0
 41 42  2  0
 35 43  1  0
 43 44  2  0
 43 45  1  0
 45 46  1  0
 46 47  1  0
 47 48  1  0
 48 49  2  0
 49 50  1  0
 50 51  2  0
 51 52  1  0
 52 53  2  0
 46 54  1  0
 54 55  2  0
 54 56  1  0
  9  4  1  0
 20 15  1  0
 31 26  1  0
 42 37  1  0
 53 48  1  0
M  END
>  <Title>  (17) 
idAAAQgen4

$$$$

     RDKit          2D

 30 34  0  0  0  0  0  0  0  0999 V2000
   -1.8760    4.4687    0.0000 O   0  0  0  0  0  0  0  0  0  0  0  0
   -3.2463    3.8586    0.0000 C   0  0  0  0  0  0  0  0  0  0  0  0
   -4.4598    4.7402    0.0000 N   0  0  0  0  0  0  0  0  0  0  0  0
   -4.3030    6.2320    0.0000 C   0  0  0  0  0  0  0  0  0  0  0  0
   -5.5165    7.1137    0.0000 C   0  0  0  0  0  0  0  0  0  0  0  0
   -6.5955    6.0717    0.0000 C   0  0  0  0  0  0  0  0  0  0  0  0
   -8.0374    6.4852    0.0000 C   0  0  0  0  0  0  0  0  0  0  0  0
   -9.1164    5.4432    0.0000 C   0  0  0  0  0  0  0  0  0  0  0  0
   -8.7536    3.9877    0.0000 C   0  0  0  0  0  0  0  0  0  0  0  0
   -7.3117    3.5743    0.0000 C   0  0  0  0  0  0  0  0  0  0  0  0
   -6.2327    4.6163    0.0000 C   0  0  0  0  0  0  0  0  0  0  0  0
   -6.3553    8.3573    0.0000 C   0  0  0  0  0  0  0  0  0  0  0  0
   -4.8590    8.4619    0.0000 C   0  0  0  0  0  0  0  0  0  0  0  0
   -3.4031    2.3668    0.0000 N   0  0  0  0  0  0  0  0  0  0  0  0
   -2.1895    1.4851    0.0000 C   0  0  0  0  0  0  0  0  0  0  0  0
   -0.8192    2.0952    0.0000 C   0  0  0  0  0  0  0  0  0  0  0  0
    0.3943    1.2135    0.0000 C   0  0  0  0  0  0  0  0  0  0  0  0
    1.2760    0.0000    0.0000 C   0  0  0  0  0  0  0  0  0  0  0  0
    0.3943   -1.2135    0.0000 C   0  0  0  0  0  0  0  0  0  0  0  0
   -1.0323   -0.7500    0.0000 C   0  0  0  0  0  0  0  0  0  0  0  0
   -2.3463   -0.0067    0.0000 C   0  0  0  0  0  0  0  0  0  0  0  0
   -1.0323    0.7500    0.0000 N   0  0  0  0  0  0  0  0  0  0  0  0
   -2.2458    1.6317    0.0000 C   0  0  0  0  0  0  0  0  0  0  0  0
   -3.6161    1.0216    0.0000 O   0  0  0  0  0  0  0  0  0  0  0  0
   -2.0890    3.1235    0.0000 C   0  0  0  0  0  0  0  0  0  0  0  0
   -0.7187    3.7336    0.0000 C   0  0  0  0  0  0  0  0  0  0  0  0
   -0.5619    5.2253    0.0000 C   0  0  0  0  0  0  0  0  0  0  0  0
   -1.7754    6.1070    0.0000 C   0  0  0  0  0  0  0  0  0  0  0  0
   -3.1458    5.4969    0.0000 C   0  0  0  0  0  0  0  0  0  0  0  0
   -3.3025    4.0051    0.0000 C   0  0  0  0  0  0  0  0  0  0  0  0
  1  2  2  0
  2  3  1  0
  3  4  1  0
  4  5  1  0
  5  6  1  0
  6  7  2  0
  7  8  1  0
  8  9  2  0
  9 10  1  0
 10 11  2  0
  5 12  1  0
 12 13  1  0
  2 14  1  0
 14 15  1  0
 15 16  1  0
 16 17  1  0
 17 18  1  0
 18 19  1  0
 19 20  1  0
 20 21  1  0
 20 22  1  0
 22 23  1  0
 23 24  2  0
 23 25  1  0
 25 26  2  0
 26 27  1  0
 27 28  2  0
 28 29  1  0
 29 30  2  0
 13  5  1  0
 21 15  1  0
 30 25  1  0
 11  6  1  0
 22 17  1  0
M  END
>  <Title>  (18) 
idAAARgen4

$$$$

     RDKit          2D

 51 54  0  0  0  0  0  0  0  0999 V2000
    6.7500   -6.4952    0.0000 C   0  0  0  0  0  0  0  0  0  0  0  0
    6.0000   -5.1962    0.0000 C   0  0  0  0  0  0  0  0  0  0  0  0
    6.7500   -3.8971    0.0000 C   0  0  0  0  0  0  0  0  0  0  0  0
    4.5000   -5.1962    0.0000 C   0  0  0  0  0  0  0  0  0  0  0  0
    3.7500   -3.8971    0.0000 C   0  0  0  0  0  0  0  0  0  0  0  0
    2.2500   -3.8971    0.0000 N   0  0  0  0  0  0  0  0  0  0  0  0
    1.5000   -2.5981    0.0000 S   0  0  0  0  0  0  0  0  0  0  0  0
    0.2010   -3.3481    0.0000 O   0  0  0  0  0  0  0  0  0  0  0  0
    2.7990   -1.8481    0.0000 O   0  0  0  0  0  0  0  0  0  0  0  0
    0.7500   -1.2990    0.0000 C   0  0  0  0  0  0  0  0  0  0  0  0
    1.5000    0.0000    0.0000 C   0  0  0  0  0  0  0  0  0  0  0  0
    0.7500    1.2990    0.0000 C   0  0  0  0  0  0  0  0  0  0  0  0
   -0.7500    1.2990    0.0000 C   0  0  0  0  0  0  0  0  0  0  0  0
   -1.5000    0.0000    0.0000 C   0  0  0  0  0  0  0  0  0  0  0  0
   -0.7500   -1.2990    0.0000 C   0  0  0  0  0  0  0  0  0  0  0  0
    4.5000   -2.5981    0.0000 C   0  0  0  0  0  0  0  0  0  0  0  0
    3.7500   -1.2990    0.0000 O   0  0  0  0  0  0  0  0  0  0  0  0
    6.0000   -2.5981    0.0000 N   0  0  0  0  0  0  0  0  0  0  0  0
    6.7500   -1.2990    0.0000 C   0  0  0  0  0  0  0  0  0  0  0  0
    8.2500   -1.2990    0.0000 C   0  0  0  0  0  0  0  0  0  0  0  0
    9.0000   -0.0000    0.0000 C   0  0  0  0  0  0  0  0  0  0  0  0
   10.5000   -0.0000    0.0000 C   0  0  0  0  0  0  0  0  0  0  0  0
   11.2500    1.2990    0.0000 C   0  0  0  0  0  0  0  0  0  0  0  0
   10.5000    2.5981    0.0000 C   0  0  0  0  0  0  0  0  0  0  0  0
    9.0000    2.5981    0.0000 C   0  0  0  0  0  0  0  0  0  0  0  0
    8.2500    1.2990    0.0000 C   0  0  0  0  0  0  0  0  0  0  0  0
    6.0000   -0.0000    0.0000 C   0  0  0  0  0  0  0  0  0  0  0  0
    4.5000   -0.0000    0.0000 O   0  0  0  0  0  0  0  0  0  0  0  0
    6.7500    1.2990    0.0000 N   0  0  0  0  0  0  0  0  0  0  0  0
    6.0000    2.5981    0.0000 C   0  0  0  0  0  0  0  0  0  0  0  0
    6.7500    3.8971    0.0000 C   0  0  0  0  0  0  0  0  0  0  0  0
    6.0000    5.1962    0.0000 C   0  0  0  0  0  0  0  0  0  0  0  0
    6.7500    6.4952    0.0000 C   0  0  0  0  0  0  0  0  0  0  0  0
    6.0000    7.7942    0.0000 C   0  0  0  0  0  0  0  0  0  0  0  0
    4.5000    7.7942    0.0000 C   0  0  0  0  0  0  0  0  0  0  0  0
    3.7500    6.4952    0.0000 C   0  0  0  0  0  0  0  0  0  0  0  0
    4.5000    5.1962    0.0000 C   0  0  0  0  0  0  0  0  0  0  0  0
    4.5000    2.5981    0.0000 C   0  0  0  0  0  0  0  0  0  0  0  0
    3.7500    1.2990    0.0000 O   0  0  0  0  0  0  0  0  0  0  0  0
    3.7500    3.8971    0.0000 N   0  0  0  0  0  0  0  0  0  0  0  0
    2.2500    3.8971    0.0000 C   0  0  0  0  0  0  0  0  0  0  0  0
    1.5000    5.1962    0.0000 C   0  0  0  0  0  0  0  0  0  0  0  0
    0.0000    5.1962    0.0000 C   0  0  0  0  0  0  0  0  0  0  0  0
   -0.7500    6.4952    0.0000 C   0  0  0  0  0  0  0  0  0  0  0  0
   -2.2500    6.4952    0.0000 C   0  0  0  0  0  0  0  0  0  0  0  0
   -3.0000    5.1962    0.0000 C   0  0  0  0  0  0  0  0  0  0  0  0
   -2.2500    3.8971    0.0000 C   0  0  0  0  0  0  0  0  0  0  0  0
   -0.7500    3.8971    0.0000 C   0  0  0  0  0  0  0  0  0  0  0  0
    1.5000    2.5981    0.0000 C   0  0  0  0  0  0  0  0  0  0  0  0
    2.2500    1.2990    0.0000 O   0  0  0  0  0  0  0  0  0  0  0  0
    0.0000    2.5981    0.0000 O   0  0  0  0  0  0  0  0  0  0  0  0
  1  2  1  0
  2  3  1  0
  2  4  1  0
  4  5  1  0
  5  6  1  0
  6  7  1  0
  7  8  2  0
  7  9  2  0
  7 10  1  0
 10 11  2  0
 11 12  1  0
 12 13  2  0
 13 14  1  0
 14 15  2  0
  5 16  1  0
 16 17  2  0
 16 18  1  0
 18 19  1  0
 19 20  1  0
 20 21  1  0
 21 22  2  0
 22 23  1  0
 23 24  2  0
 24 25  1  0
 25 26  2  0
 19 27  1  0
 27 28  2  0
 27 29  1  0
 29 30  1  0
 30 31  1  0
 31 32  1  0
 32 33  2  0
 33 34  1  0
 34 35  2  0
 35 36  1  0
 36 37  2  0
 30 38  1  0
 38 39  2  0
 38 40  1  0
 40 41  1  0
 41 42  1  0
 42 43  1  0
 43 44  2  0
 44 45  1  0
 45 46  2  0
 46 47  1  0
 47 48  2  0
 41 49  1  0
 49 50  2  0
 49 51  1  0
 15 10  1  0
 26 21  1  0
 37 32  1  0
 48 43  1  0
M  END
>  <Title>  (19) 
idAAASgen4

$$$$

     RDKit          2D

 70 76  0  0  0  0  0  0  0  0999 V2000
   -3.4140    1.9635    0.0000 C   0  0  0  0  0  0  0  0  0  0  0  0
   -1.9140    1.9635    0.0000 C   0  0  0  0  0  0  0  0  0  0  0  0
   -1.1640    0.6645    0.0000 C   0  0  0  0  0  0  0  0  0  0  0  0
   -1.1640    3.2626    0.0000 C   0  0  0  0  0  0  0  0  0  0  0  0
    0.3360    3.2626    0.0000 N   0  0  0  0  0  0  0  0  0  0  0  0
    1.0860    4.5616    0.0000 C   0  0  0  0  0  0  0  0  0  0  0  0
    0.3360    5.8606    0.0000 C   0  0  0  0  0  0  0  0  0  0  0  0
   -1.1640    5.8606    0.0000 O   0  0  0  0  0  0  0  0  0  0  0  0
    1.0860    7.1597    0.0000 C   0  0  0  0  0  0  0  0  0  0  0  0
    2.5860    7.1597    0.0000 C   0  0  0  0  0  0  0  0  0  0  0  0
    3.3360    5.8606    0.0000 C   0  0  0  0  0  0  0  0  0  0  0  0
    2.5860    4.5616    0.0000 C   0  0  0  0  0  0  0  0  0  0  0  0
    3.3360    3.2626    0.0000 C   0  0  0  0  0  0  0  0  0  0  0  0
    4.8360    3.2626    0.0000 C   0  0  0  0  0  0  0  0  0  0  0  0
    5.5860    4.5616    0.0000 C   0  0  0  0  0  0  0  0  0  0  0  0
    4.8360    5.8606    0.0000 C   0  0  0  0  0  0  0  0  0  0  0  0
    0.3360    8.4587    0.0000 N   0  0  0  0  0  0  0  0  0  0  0  0
   -1.1640    8.4587    0.0000 C   0  0  0  0  0  0  0  0  0  0  0  0
   -1.9140    7.1597    0.0000 O   0  0  0  0  0  0  0  0  0  0  0  0
   -1.9140    9.7578    0.0000 C   0  0  0  0  0  0  0  0  0  0  0  0
   -1.1640   11.0568    0.0000 C   0  0  0  0  0  0  0  0  0  0  0  0
    0.3360   11.0568    0.0000 C   0  0  0  0  0  0  0  0  0  0  0  0
    1.0860    9.7578    0.0000 C   0  0  0  0  0  0  0  0  0  0  0  0
    2.5860    9.7578    0.0000 C   0  0  0  0  0  0  0  0  0  0  0  0
    3.3360   11.0568    0.0000 C   0  0  0  0  0  0  0  0  0  0  0  0
    2.5860   12.3558    0.0000 C   0  0  0  0  0  0  0  0  0  0  0  0
    1.0860   12.3558    0.0000 C   0  0  0  0  0  0  0  0  0  0  0  0
   -3.4140    9.7578    0.0000 N   0  0  0  0  0  0  0  0  0  0  0  0
   -4.1640    8.4587    0.0000 C   0  0  0  0  0  0  0  0  0  0  0  0
   -3.4140    7.1597    0.0000 O   0  0  0  0  0  0  0  0  0  0  0  0
   -5.6640    8.4587    0.0000 C   0  0  0  0  0  0  0  0  0  0  0  0
   -6.4140    9.7578    0.0000 C   0  0  0  0  0  0  0  0  0  0  0  0
   -5.6640   11.0568    0.0000 C   0  0  0  0  0  0  0  0  0  0  0  0
   -4.1640   11.0568    0.0000 C   0  0  0  0  0  0  0  0  0  0  0  0
   -3.4140   12.3558    0.0000 C   0  0  0  0  0  0  0  0  0  0  0  0
   -4.1640   13.6549    0.0000 C   0  0  0  0  0  0  0  0  0  0  0  0
   -5.6640   13.6549    0.0000 C   0  0  0  0  0  0  0  0  0  0  0  0
   -6.4140   12.3558    0.0000 C   0  0  0  0  0  0  0  0  0  0  0  0
   -6.4140    7.1597    0.0000 N   0  0  0  0  0  0  0  0  0  0  0  0
   -7.9140    7.1597    0.0000 C   0  0  0  0  0  0  0  0  0  0  0  0
   -8.6640    8.4587    0.0000 O   0  0  0  0  0  0  0  0  0  0  0  0
   -8.6640    5.8606    0.0000 C   0  0  0  0  0  0  0  0  0  0  0  0
   -7.9140    4.5616    0.0000 C   0  0  0  0  0  0  0  0  0  0  0  0
   -6.4140    4.5616    0.0000 C   0  0  0  0  0  0  0  0  0  0  0  0
   -5.6640    5.8606    0.0000 C   0  0  0  0  0  0  0  0  0  0  0  0
   -4.1640    5.8606    0.0000 C   0  0  0  0  0  0  0  0  0  0  0  0
   -3.4140    4.5616    0.0000 C   0  0  0  0  0  0  0  0  0  0  0  0
   -4.1640    3.2626    0.0000 C   0  0  0  0  0  0  0  0  0  0  0  0
   -5.6640    3.2626    0.0000 C   0  0  0  0  0  0  0  0  0  0  0  0
  -10.1640    5.8606    0.0000 N   0  0  0  0  0  0  0  0  0  0  0  0
  -10.9140    7.1597    0.0000 C   0  0  0  0  0  0  0  0  0  0  0  0
  -10.1640    8.4587    0.0000 O   0  0  0  0  0  0  0  0  0  0  0  0
  -12.4140    7.1597    0.0000 O   0  0  0  0  0  0  0  0  0  0  0  0
  -13.1640    5.8606    0.0000 C   0  0  0  0  0  0  0  0  0  0  0  0
  -12.5539    4.4903    0.0000 C   0  0  0  0  0  0  0  0  0  0  0  0
  -13.6686    3.4866    0.0000 O   0  0  0  0  0  0  0  0  0  0  0  0
  -14.9676    4.2366    0.0000 C   0  0  0  0  0  0  0  0  0  0  0  0
  -16.4594    4.0798    0.0000 O   0  0  0  0  0  0  0  0  0  0  0  0
  -17.0695    5.4502    0.0000 C   0  0  0  0  0  0  0  0  0  0  0  0
  -15.9548    6.4538    0.0000 C   0  0  0  0  0  0  0  0  0  0  0  0
  -14.6557    5.7038    0.0000 C   0  0  0  0  0  0  0  0  0  0  0  0
    1.0860    1.9635    0.0000 S   0  0  0  0  0  0  0  0  0  0  0  0
   -0.2130    1.2135    0.0000 O   0  0  0  0  0  0  0  0  0  0  0  0
    2.3851    2.7135    0.0000 O   0  0  0  0  0  0  0  0  0  0  0  0
    1.8360    0.6645    0.0000 C   0  0  0  0  0  0  0  0  0  0  0  0
    1.0860   -0.6346    0.0000 C   0  0  0  0  0  0  0  0  0  0  0  0
    1.8360   -1.9336    0.0000 C   0  0  0  0  0  0  0  0  0  0  0  0
    3.3360   -1.9336    0.0000 C   0  0  0  0  0  0  0  0  0  0  0  0
    4.0860   -0.6346    0.0000 C   0  0  0  0  0  0  0  0  0  0  0  0
    3.3360    0.6645    0.0000 C   0  0  0  0  0  0  0  0  0  0  0  0
  1  2  1  0
  2  3  1  0
  2  4  1  0
  4  5  1  0
  5  6  1  0
  6  7  1  0
  7  8  1  0
  7  9  1  0
  9 10  1  0
 10 11  1  0
 11 12  2  0
 12 13  1  0
 13 14  2  0
 14 15  1  0
 15 16  2  0
  9 17  1  0
 17 18  1  0
 18 19  2  0
 18 20  1  0
 20 21  1  0
 21 22  1  0
 22 23  2  0
 23 24  1  0
 24 25  2  0
 25 26  1  0
 26 27  2  0
 20 28  1  0
 28 29  1  0
 29 30  2  0
 29 31  1  0
 31 32  1  0
 32 33  1  0
 33 34  2  0
 34 35  1  0
 35 36  2  0
 36 37  1  0
 37 38  2  0
 31 39  1  0
 39 40  1  0
 40 41  2  0
 40 42  1  0
 42 43  1  0
 43 44  1  0
 44 45  2  0
 45 46  1  0
 46 47  2  0
 47 48  1  0
 48 49  2  0
 42 50  1  0
 50 51  1  0
 51 52  2  0
 51 53  1  0
 53 54  1  0
 54 55  1  0
 55 56  1  0
 56 57  1  0
 57 58  1  0
 58 59  1  0
 59 60  1  0
 60 61  1  0
  5 62  1  0
 62 63  2  0
 62 64  2  0
 62 65  1  0
 65 66  2  0
 66 67  1  0
 67 68  2  0
 68 69  1  0
 69 70  2  0
 16 11  1  0
 27 22  1  0
 38 33  1  0
 49 44  1  0
 61 54  1  0
 70 65  1  0
 61 57  1  0
M  END
>  <Title>  (20) 
idAAATgen4

$$$$

     RDKit          2D

 74 80  0  0  0  0  0  0  0  0999 V2000
    0.3360    3.2626    0.0000 C   0  0  0  0  0  0  0  0  0  0  0  0
    1.0860    4.5616    0.0000 C   0  0  0  0  0  0  0  0  0  0  0  0
    2.5860    4.5616    0.0000 C   0  0  0  0  0  0  0  0  0  0  0  0
    0.3360    5.8606    0.0000 C   0  0  0  0  0  0  0  0  0  0  0  0
    1.0860    7.1597    0.0000 N   0  0  0  0  0  0  0  0  0  0  0  0
    0.3360    8.4587    0.0000 C   0  0  0  0  0  0  0  0  0  0  0  0
   -1.1640    8.4587    0.0000 C   0  0  0  0  0  0  0  0  0  0  0  0
   -1.9140    7.1597    0.0000 O   0  0  0  0  0  0  0  0  0  0  0  0
   -1.9140    9.7578    0.0000 C   0  0  0  0  0  0  0  0  0  0  0  0
   -1.1640   11.0568    0.0000 C   0  0  0  0  0  0  0  0  0  0  0  0
    0.3360   11.0568    0.0000 C   0  0  0  0  0  0  0  0  0  0  0  0
    1.0860    9.7578    0.0000 C   0  0  0  0  0  0  0  0  0  0  0  0
    2.5860    9.7578    0.0000 C   0  0  0  0  0  0  0  0  0  0  0  0
    3.3360   11.0568    0.0000 C   0  0  0  0  0  0  0  0  0  0  0  0
    2.5860   12.3558    0.0000 C   0  0  0  0  0  0  0  0  0  0  0  0
    1.0860   12.3558    0.0000 C   0  0  0  0  0  0  0  0  0  0  0  0
   -3.4140    9.7578    0.0000 N   0  0  0  0  0  0  0  0  0  0  0  0
   -4.1640    8.4587    0.0000 C   0  0  0  0  0  0  0  0  0  0  0  0
   -3.4140    7.1597    0.0000 O   0  0  0  0  0  0  0  0  0  0  0  0
   -5.6640    8.4587    0.0000 C   0  0  0  0  0  0  0  0  0  0  0  0
   -6.4140    9.7578    0.0000 C   0  0  0  0  0  0  0  0  0  0  0  0
   -5.6640   11.0568    0.0000 C   0  0  0  0  0  0  0  0  0  0  0  0
   -4.1640   11.0568    0.0000 C   0  0  0  0  0  0  0  0  0  0  0  0
   -3.4140   12.3558    0.0000 C   0  0  0  0  0  0  0  0  0  0  0  0
   -4.1640   13.6549    0.0000 C   0  0  0  0  0  0  0  0  0  0  0  0
   -5.6640   13.6549    0.0000 C   0  0  0  0  0  0  0  0  0  0  0  0
   -6.4140   12.3558    0.0000 C   0  0  0  0  0  0  0  0  0  0  0  0
   -6.4140    7.1597    0.0000 N   0  0  0  0  0  0  0  0  0  0  0  0
   -5.6640    5.8606    0.0000 C   0  0  0  0  0  0  0  0  0  0  0  0
   -4.1640    5.8606    0.0000 O   0  0  0  0  0  0  0  0  0  0  0  0
   -6.4140    4.5616    0.0000 C   0  0  0  0  0  0  0  0  0  0  0  0
   -7.9140    4.5616    0.0000 C   0  0  0  0  0  0  0  0  0  0  0  0
   -8.6640    5.8606    0.0000 C   0  0  0  0  0  0  0  0  0  0  0  0
   -7.9140    7.1597    0.0000 C   0  0  0  0  0  0  0  0  0  0  0  0
   -8.6640    8.4587    0.0000 C   0  0  0  0  0  0  0  0  0  0  0  0
  -10.1640    8.4587    0.0000 C   0  0  0  0  0  0  0  0  0  0  0  0
  -10.9140    7.1597    0.0000 C   0  0  0  0  0  0  0  0  0  0  0  0
  -10.1640    5.8606    0.0000 C   0  0  0  0  0  0  0  0  0  0  0  0
   -5.6640    3.2626    0.0000 N   0  0  0  0  0  0  0  0  0  0  0  0
   -4.1640    3.2626    0.0000 C   0  0  0  0  0  0  0  0  0  0  0  0
   -3.4140    4.5616    0.0000 O   0  0  0  0  0  0  0  0  0  0  0  0
   -3.4140    1.9635    0.0000 O   0  0  0  0  0  0  0  0  0  0  0  0
   -4.1640    0.6645    0.0000 C   0  0  0  0  0  0  0  0  0  0  0  0
   -5.6557    0.5077    0.0000 C   0  0  0  0  0  0  0  0  0  0  0  0
   -5.9676   -0.9595    0.0000 O   0  0  0  0  0  0  0  0  0  0  0  0
   -4.6686   -1.7095    0.0000 C   0  0  0  0  0  0  0  0  0  0  0  0
   -4.0585   -3.0798    0.0000 O   0  0  0  0  0  0  0  0  0  0  0  0
   -2.5667   -2.9231    0.0000 C   0  0  0  0  0  0  0  0  0  0  0  0
   -2.2548   -1.4558    0.0000 C   0  0  0  0  0  0  0  0  0  0  0  0
   -3.5539   -0.7058    0.0000 C   0  0  0  0  0  0  0  0  0  0  0  0
    2.5860    7.1597    0.0000 S   0  0  0  0  0  0  0  0  0  0  0  0
    2.5860    8.6597    0.0000 O   0  0  0  0  0  0  0  0  0  0  0  0
    2.5860    5.6597    0.0000 O   0  0  0  0  0  0  0  0  0  0  0  0
    4.0860    7.1597    0.0000 C   0  0  0  0  0  0  0  0  0  0  0  0
    4.8360    8.4587    0.0000 C   0  0  0  0  0  0  0  0  0  0  0  0
    6.3360    8.4587    0.0000 C   0  0  0  0  0  0  0  0  0  0  0  0
    7.0860    7.1597    0.0000 C   0  0  0  0  0  0  0  0  0  0  0  0
    8.5860    7.1597    0.0000 N   0  0  0  0  0  0  0  0  0  0  0  0
    9.3360    8.4587    0.0000 C   0  0  0  0  0  0  0  0  0  0  0  0
    8.5860    9.7578    0.0000 O   0  0  0  0  0  0  0  0  0  0  0  0
   10.8360    8.4587    0.0000 C   0  0  0  0  0  0  0  0  0  0  0  0
   11.5860    7.1597    0.0000 C   0  0  0  0  0  0  0  0  0  0  0  0
   13.0860    7.1597    0.0000 C   0  0  0  0  0  0  0  0  0  0  0  0
   13.8360    8.4587    0.0000 O   0  0  0  0  0  0  0  0  0  0  0  0
   13.8360    5.8606    0.0000 O   0  0  0  0  0  0  0  0  0  0  0  0
   11.5860    9.7578    0.0000 C   0  0  0  0  0  0  0  0  0  0  0  0
   10.8360   11.0568    0.0000 C   0  0  0  0  0  0  0  0  0  0  0  0
    9.3360   11.0568    0.0000 C   0  0  0  0  0  0  0  0  0  0  0  0
    8.5860   12.3558    0.0000 C   0  0  0  0  0  0  0  0  0  0  0  0
    9.3360   13.6549    0.0000 C   0  0  0  0  0  0  0  0  0  0  0  0
   10.8360   13.6549    0.0000 C   0  0  0  0  0  0  0  0  0  0  0  0
   11.5860   12.3558    0.0000 C   0  0  0  0  0  0  0  0  0  0  0  0
    6.3360    5.8606    0.0000 C   0  0  0  0  0  0  0  0  0  0  0  0
    4.8360    5.8606    0.0000 C   0  0  0  0  0  0  0  0  0  0  0  0
  1  2  1  0
  2  3  1  0
  2  4  1  0
  4  5  1  0
  5  6  1  0
  6  7  1  0
  7  8  1  0
  7  9  1  0
  9 10  1  0
 10 11  1  0
 11 12  2  0
 12 13  1  0
 13 14  2  0
 14 15  1  0
 15 16  2  0
  9 17  1  0
 17 18  1  0
 18 19  2  0
 18 20  1  0
 20 21  1  0
 21 22  1  0
 22 23  2  0
 23 24  1  0
 24 25  2  0
 25 26  1  0
 26 27  2  0
 20 28  1  0
 28 29  1  0
 29 30  2  0
 29 31  1  0
 31 32  1  0
 32 33  1  0
 33 34  2  0
 34 35  1  0
 35 36  2  0
 36 37  1  0
 37 38  2  0
 31 39  1  0
 39 40  1  0
 40 41  2  0
 40 42  1  0
 42 43  1  0
 43 44  1  0
 44 45  1  0
 45 46  1  0
 46 47  1  0
 47 48  1  0
 48 49  1  0
 49 50  1  0
  5 51  1  0
 51 52  2  0
 51 53  2  0
 51 54  1  0
 54 55  2  0
 55 56  1  0
 56 57  2  0
 57 58  1  0
 58 59  1  0
 59 60  2  0
 59 61  1  0
 61 62  1  0
 62 63  1  0
 63 64  2  0
 63 65  1  0
 61 66  1  0
 66 67  1  0
 67 68  2  0
 68 69  1  0
 69 70  2  0
 70 71  1  0
 71 72  2  0
 57 73  1  0
 73 74  2  0
 16 11  1  0
 27 22  1  0
 38 33  1  0
 50 43  1  0
 74 54  1  0
 50 46  1  0
 72 67  1  0
M  END
>  <Title>  (21) 
idAAAUgen4

$$$$

     RDKit          2D

 80 86  0  0  0  0  0  0  0  0999 V2000
    9.7500    3.8971    0.0000 C   0  0  0  0  0  0  0  0  0  0  0  0
   10.5000    5.1962    0.0000 C   0  0  0  0  0  0  0  0  0  0  0  0
    9.7500    6.4952    0.0000 C   0  0  0  0  0  0  0  0  0  0  0  0
   10.5000    7.7942    0.0000 C   0  0  0  0  0  0  0  0  0  0  0  0
    9.7500    9.0933    0.0000 O   0  0  0  0  0  0  0  0  0  0  0  0
   10.5000   10.3923    0.0000 C   0  0  0  0  0  0  0  0  0  0  0  0
   12.0000   10.3923    0.0000 C   0  0  0  0  0  0  0  0  0  0  0  0
   12.7500   11.6913    0.0000 C   0  0  0  0  0  0  0  0  0  0  0  0
   12.0000   12.9904    0.0000 C   0  0  0  0  0  0  0  0  0  0  0  0
   10.5000   12.9904    0.0000 C   0  0  0  0  0  0  0  0  0  0  0  0
    9.7500   11.6913    0.0000 C   0  0  0  0  0  0  0  0  0  0  0  0
    8.2500   11.6913    0.0000 C   0  0  0  0  0  0  0  0  0  0  0  0
    7.5000   10.3923    0.0000 N   0  0  0  0  0  0  0  0  0  0  0  0
    6.0000   10.3923    0.0000 C   0  0  0  0  0  0  0  0  0  0  0  0
    5.2500   11.6913    0.0000 O   0  0  0  0  0  0  0  0  0  0  0  0
    5.2500    9.0933    0.0000 C   0  0  0  0  0  0  0  0  0  0  0  0
    6.0000    7.7942    0.0000 C   0  0  0  0  0  0  0  0  0  0  0  0
    7.5000    7.7942    0.0000 C   0  0  0  0  0  0  0  0  0  0  0  0
    8.2500    6.4952    0.0000 C   0  0  0  0  0  0  0  0  0  0  0  0
    7.5000    5.1962    0.0000 C   0  0  0  0  0  0  0  0  0  0  0  0
    6.0000    5.1962    0.0000 C   0  0  0  0  0  0  0  0  0  0  0  0
    5.2500    6.4952    0.0000 C   0  0  0  0  0  0  0  0  0  0  0  0
    3.7500    6.4952    0.0000 C   0  0  0  0  0  0  0  0  0  0  0  0
    3.0000    5.1962    0.0000 O   0  0  0  0  0  0  0  0  0  0  0  0
    3.0000    7.7942    0.0000 N   0  0  0  0  0  0  0  0  0  0  0  0
    1.5000    7.7942    0.0000 C   0  0  0  0  0  0  0  0  0  0  0  0
    0.7500    9.0933    0.0000 C   0  0  0  0  0  0  0  0  0  0  0  0
   -0.7500    9.0933    0.0000 C   0  0  0  0  0  0  0  0  0  0  0  0
   -1.5000    7.7942    0.0000 C   0  0  0  0  0  0  0  0  0  0  0  0
   -3.0000    7.7942    0.0000 C   0  0  0  0  0  0  0  0  0  0  0  0
   -3.7500    9.0933    0.0000 C   0  0  0  0  0  0  0  0  0  0  0  0
   -3.0000   10.3923    0.0000 C   0  0  0  0  0  0  0  0  0  0  0  0
   -1.5000   10.3923    0.0000 C   0  0  0  0  0  0  0  0  0  0  0  0
    0.7500    6.4952    0.0000 C   0  0  0  0  0  0  0  0  0  0  0  0
    1.5000    5.1962    0.0000 O   0  0  0  0  0  0  0  0  0  0  0  0
   -0.7500    6.4952    0.0000 N   0  0  0  0  0  0  0  0  0  0  0  0
   -1.5000    5.1962    0.0000 C   0  0  0  0  0  0  0  0  0  0  0  0
   -3.0000    5.1962    0.0000 C   0  0  0  0  0  0  0  0  0  0  0  0
   -3.7500    3.8971    0.0000 C   0  0  0  0  0  0  0  0  0  0  0  0
   -5.2500    3.8971    0.0000 C   0  0  0  0  0  0  0  0  0  0  0  0
   -6.0000    2.5981    0.0000 C   0  0  0  0  0  0  0  0  0  0  0  0
   -5.2500    1.2990    0.0000 C   0  0  0  0  0  0  0  0  0  0  0  0
   -3.7500    1.2990    0.0000 C   0  0  0  0  0  0  0  0  0  0  0  0
   -3.0000    2.5981    0.0000 C   0  0  0  0  0  0  0  0  0  0  0  0
   -0.7500    3.8971    0.0000 C   0  0  0  0  0  0  0  0  0  0  0  0
    0.7500    3.8971    0.0000 O   0  0  0  0  0  0  0  0  0  0  0  0
   -1.5000    2.5981    0.0000 N   0  0  0  0  0  0  0  0  0  0  0  0
   -0.7500    1.2990    0.0000 C   0  0  0  0  0  0  0  0  0  0  0  0
    0.7500    1.2990    0.0000 C   0  0  0  0  0  0  0  0  0  0  0  0
    1.5000    0.0000    0.0000 C   0  0  0  0  0  0  0  0  0  0  0  0
    3.0000    0.0000    0.0000 C   0  0  0  0  0  0  0  0  0  0  0  0
    3.7500   -1.2990    0.0000 C   0  0  0  0  0  0  0  0  0  0  0  0
    3.0000   -2.5981    0.0000 C   0  0  0  0  0  0  0  0  0  0  0  0
    1.5000   -2.5981    0.0000 C   0  0  0  0  0  0  0  0  0  0  0  0
    0.7500   -1.2990    0.0000 C   0  0  0  0  0  0  0  0  0  0  0  0
   -1.5000    0.0000    0.0000 C   0  0  0  0  0  0  0  0  0  0  0  0
   -0.7500   -1.2990    0.0000 O   0  0  0  0  0  0  0  0  0  0  0  0
   -3.0000    0.0000    0.0000 N   0  0  0  0  0  0  0  0  0  0  0  0
   -3.7500   -1.2990    0.0000 C   0  0  0  0  0  0  0  0  0  0  0  0
   -5.2500   -1.2990    0.0000 C   0  0  0  0  0  0  0  0  0  0  0  0
   -6.0000   -2.5981    0.0000 C   0  0  0  0  0  0  0  0  0  0  0  0
   -5.2500   -3.8971    0.0000 C   0  0  0  0  0  0  0  0  0  0  0  0
   -6.0000   -5.1962    0.0000 C   0  0  0  0  0  0  0  0  0  0  0  0
   -7.5000   -5.1962    0.0000 C   0  0  0  0  0  0  0  0  0  0  0  0
   -8.2500   -3.8971    0.0000 C   0  0  0  0  0  0  0  0  0  0  0  0
   -7.5000   -2.5981    0.0000 C   0  0  0  0  0  0  0  0  0  0  0  0
   -3.0000   -2.5981    0.0000 C   0  0  0  0  0  0  0  0  0  0  0  0
   -1.5000   -2.5981    0.0000 O   0  0  0  0  0  0  0  0  0  0  0  0
   -3.7500   -3.8971    0.0000 N   0  0  0  0  0  0  0  0  0  0  0  0
   -3.0000   -5.1962    0.0000 C   0  0  0  0  0  0  0  0  0  0  0  0
   -3.7500   -6.4952    0.0000 C   0  0  0  0  0  0  0  0  0  0  0  0
   -3.0000   -7.7942    0.0000 C   0  0  0  0  0  0  0  0  0  0  0  0
   -1.5000   -7.7942    0.0000 C   0  0  0  0  0  0  0  0  0  0  0  0
   -0.7500   -9.0933    0.0000 C   0  0  0  0  0  0  0  0  0  0  0  0
   -1.5000  -10.3923    0.0000 C   0  0  0  0  0  0  0  0  0  0  0  0
   -3.0000  -10.3923    0.0000 C   0  0  0  0  0  0  0  0  0  0  0  0
   -3.7500   -9.0933    0.0000 C   0  0  0  0  0  0  0  0  0  0  0  0
   -1.5000   -5.1962    0.0000 C   0  0  0  0  0  0  0  0  0  0  0  0
   -0.7500   -3.8971    0.0000 O   0  0  0  0  0  0  0  0  0  0  0  0
   -0.7500   -6.4952    0.0000 O   0  0  0  0  0  0  0  0  0  0  0  0
  1  2  1  0
  2  3  1  0
  3  4  1  0
  4  5  1  0
  5  6  1  0
  6  7  2  0
  7  8  1  0
  8  9  2  0
  9 10  1  0
 10 11  2  0
 11 12  1  0
 12 13  1  0
 13 14  1  0
 14 15  2  0
 14 16  1  0
 16 17  1  0
 17 18  2  0
 18 19  1  0
 19 20  2  0
 20 21  1  0
 21 22  2  0
 22 23  1  0
 23 24  2  0
 23 25  1  0
 25 26  1  0
 26 27  1  0
 27 28  1  0
 28 29  2  0
 29 30  1  0
 30 31  2  0
 31 32  1  0
 32 33  2  0
 26 34  1  0
 34 35  2  0
 34 36  1  0
 36 37  1  0
 37 38  1  0
 38 39  1  0
 39 40  2  0
 40 41  1  0
 41 42  2  0
 42 43  1  0
 43 44  2  0
 37 45  1  0
 45 46  2  0
 45 47  1  0
 47 48  1  0
 48 49  1  0
 49 50  1  0
 50 51  2  0
 51 52  1  0
 52 53  2  0
 53 54  1  0
 54 55  2  0
 48 56  1  0
 56 57  2  0
 56 58  1  0
 58 59  1  0
 59 60  1  0
 60 61  1  0
 61 62  2  0
 62 63  1  0
 63 64  2  0
 64 65  1  0
 65 66  2  0
 59 67  1  0
 67 68  2  0
 67 69  1  0
 69 70  1  0
 70 71  1  0
 71 72  1  0
 72 73  2  0
 73 74  1  0
 74 75  2  0
 75 76  1  0
 76 77  2  0
 70 78  1  0
 78 79  2  0
 78 80  1  0
 11  6  1  0
 22 17  1  0
 33 28  1  0
 44 39  1  0
 55 50  1  0
 66 61  1  0
 77 72  1  0
M  END
>  <Title>  (22) 
idAAAVgen4

$$$$

     RDKit          2D

 52 56  0  0  0  0  0  0  0  0999 V2000
    3.7500    1.2990    0.0000 O   0  0  0  0  0  0  0  0  0  0  0  0
    3.0000    0.0000    0.0000 C   0  0  0  0  0  0  0  0  0  0  0  0
    3.7500   -1.2990    0.0000 O   0  0  0  0  0  0  0  0  0  0  0  0
    1.5000    0.0000    0.0000 C   0  0  0  0  0  0  0  0  0  0  0  0
    0.7500   -1.2990    0.0000 C   0  0  0  0  0  0  0  0  0  0  0  0
    1.5000   -2.5981    0.0000 C   0  0  0  0  0  0  0  0  0  0  0  0
    0.7500   -3.8971    0.0000 C   0  0  0  0  0  0  0  0  0  0  0  0
   -0.7500   -3.8971    0.0000 C   0  0  0  0  0  0  0  0  0  0  0  0
   -1.5000   -5.1962    0.0000 C   0  0  0  0  0  0  0  0  0  0  0  0
   -0.7500   -6.4952    0.0000 C   0  0  0  0  0  0  0  0  0  0  0  0
    0.7500   -6.4952    0.0000 C   0  0  0  0  0  0  0  0  0  0  0  0
    1.5000   -5.1962    0.0000 C   0  0  0  0  0  0  0  0  0  0  0  0
   -0.7500   -1.2990    0.0000 C   0  0  0  0  0  0  0  0  0  0  0  0
   -1.5000    0.0000    0.0000 C   0  0  0  0  0  0  0  0  0  0  0  0
   -0.7500    1.2990    0.0000 C   0  0  0  0  0  0  0  0  0  0  0  0
    0.7500    1.2990    0.0000 C   0  0  0  0  0  0  0  0  0  0  0  0
    1.5000    2.5981    0.0000 C   0  0  0  0  0  0  0  0  0  0  0  0
    0.7500    3.8971    0.0000 O   0  0  0  0  0  0  0  0  0  0  0  0
    3.0000    2.5981    0.0000 N   0  0  0  0  0  0  0  0  0  0  0  0
    3.7500    3.8971    0.0000 C   0  0  0  0  0  0  0  0  0  0  0  0
    5.2500    3.8971    0.0000 C   0  0  0  0  0  0  0  0  0  0  0  0
    6.0000    5.1962    0.0000 C   0  0  0  0  0  0  0  0  0  0  0  0
    7.5000    5.1962    0.0000 C   0  0  0  0  0  0  0  0  0  0  0  0
    8.2500    6.4952    0.0000 C   0  0  0  0  0  0  0  0  0  0  0  0
    7.5000    7.7942    0.0000 C   0  0  0  0  0  0  0  0  0  0  0  0
    6.0000    7.7942    0.0000 C   0  0  0  0  0  0  0  0  0  0  0  0
    5.2500    6.4952    0.0000 C   0  0  0  0  0  0  0  0  0  0  0  0
    3.0000    5.1962    0.0000 C   0  0  0  0  0  0  0  0  0  0  0  0
    1.5000    5.1962    0.0000 O   0  0  0  0  0  0  0  0  0  0  0  0
    3.7500    6.4952    0.0000 N   0  0  0  0  0  0  0  0  0  0  0  0
    3.0000    7.7942    0.0000 C   0  0  0  0  0  0  0  0  0  0  0  0
    3.7500    9.0933    0.0000 C   0  0  0  0  0  0  0  0  0  0  0  0
    3.0000   10.3923    0.0000 C   0  0  0  0  0  0  0  0  0  0  0  0
    3.7500   11.6913    0.0000 C   0  0  0  0  0  0  0  0  0  0  0  0
    3.0000   12.9904    0.0000 C   0  0  0  0  0  0  0  0  0  0  0  0
    1.5000   12.9904    0.0000 C   0  0  0  0  0  0  0  0  0  0  0  0
    0.7500   11.6913    0.0000 C   0  0  0  0  0  0  0  0  0  0  0  0
    1.5000   10.3923    0.0000 C   0  0  0  0  0  0  0  0  0  0  0  0
    1.5000    7.7942    0.0000 C   0  0  0  0  0  0  0  0  0  0  0  0
    0.7500    6.4952    0.0000 O   0  0  0  0  0  0  0  0  0  0  0  0
    0.7500    9.0933    0.0000 N   0  0  0  0  0  0  0  0  0  0  0  0
   -0.7500    9.0933    0.0000 C   0  0  0  0  0  0  0  0  0  0  0  0
   -1.5000   10.3923    0.0000 C   0  0  0  0  0  0  0  0  0  0  0  0
   -3.0000   10.3923    0.0000 C   0  0  0  0  0  0  0  0  0  0  0  0
   -3.7500   11.6913    0.0000 C   0  0  0  0  0  0  0  0  0  0  0  0
   -5.2500   11.6913    0.0000 C   0  0  0  0  0  0  0  0  0  0  0  0
   -6.0000   10.3923    0.0000 C   0  0  0  0  0  0  0  0  0  0  0  0
   -5.2500    9.0933    0.0000 C   0  0  0  0  0  0  0  0  0  0  0  0
   -3.7500    9.0933    0.0000 C   0  0  0  0  0  0  0  0  0  0  0  0
   -1.5000    7.7942    0.0000 C   0  0  0  0  0  0  0  0  0  0  0  0
   -0.7500    6.4952    0.0000 O   0  0  0  0  0  0  0  0  0  0  0  0
   -3.0000    7.7942    0.0000 O   0  0  0  0  0  0  0  0  0  0  0  0
  1  2  2  0
  2  3  1  0
  2  4  1  0
  4  5  2  0
  5  6  1  0
  6  7  1  0
  7  8  2  0
  8  9  1  0
  9 10  2  0
 10 11  1  0
 11 12  2  0
  5 13  1  0
 13 14  1  0
 14 15  1  0
 15 16  1  0
 16 17  1  0
 17 18  2  0
 17 19  1  0
 19 20  1  0
 20 21  1  0
 21 22  1  0
 22 23  2  0
 23 24  1  0
 24 25  2  0
 25 26  1  0
 26 27  2  0
 20 28  1  0
 28 29  2  0
 28 30  1  0
 30 31  1  0
 31 32  1  0
 32 33  1  0
 33 34  2  0
 34 35  1  0
 35 36  2  0
 36 37  1  0
 37 38  2  0
 31 39  1  0
 39 40  2  0
 39 41  1  0
 41 42  1  0
 42 43  1  0
 43 44  1  0
 44 45  2  0
 45 46  1  0
 46 47  2  0
 47 48  1  0
 48 49  2  0
 42 50  1  0
 50 51  2  0
 50 52  1  0
 16  4  1  0
 27 22  1  0
 38 33  1  0
 49 44  1  0
 12  7  1  0
M  END
>  <Title>  (23) 
idAAAWgen4

$$$$

     RDKit          2D

 58 64  0  0  0  0  0  0  0  0999 V2000
   -0.7500   -3.8971    0.0000 O   0  0  0  0  0  0  0  0  0  0  0  0
    0.7500   -3.8971    0.0000 C   0  0  0  0  0  0  0  0  0  0  0  0
    1.5000   -5.1962    0.0000 N   0  0  0  0  0  0  0  0  0  0  0  0
    0.7500   -6.4952    0.0000 C   0  0  0  0  0  0  0  0  0  0  0  0
    1.5000   -7.7942    0.0000 C   0  0  0  0  0  0  0  0  0  0  0  0
    0.7500   -9.0933    0.0000 C   0  0  0  0  0  0  0  0  0  0  0  0
   -0.7500   -9.0933    0.0000 C   0  0  0  0  0  0  0  0  0  0  0  0
   -1.5000  -10.3923    0.0000 C   0  0  0  0  0  0  0  0  0  0  0  0
   -0.7500  -11.6913    0.0000 C   0  0  0  0  0  0  0  0  0  0  0  0
    0.7500  -11.6913    0.0000 C   0  0  0  0  0  0  0  0  0  0  0  0
    1.5000  -10.3923    0.0000 C   0  0  0  0  0  0  0  0  0  0  0  0
   -0.7500   -6.4952    0.0000 C   0  0  0  0  0  0  0  0  0  0  0  0
   -1.5000   -5.1962    0.0000 O   0  0  0  0  0  0  0  0  0  0  0  0
   -1.5000   -7.7942    0.0000 N   0  0  0  0  0  0  0  0  0  0  0  0
   -3.0000   -7.7942    0.0000 C   0  0  0  0  0  0  0  0  0  0  0  0
   -3.7500   -9.0933    0.0000 C   0  0  0  0  0  0  0  0  0  0  0  0
   -5.2500   -9.0933    0.0000 C   0  0  0  0  0  0  0  0  0  0  0  0
   -6.0000   -7.7942    0.0000 C   0  0  0  0  0  0  0  0  0  0  0  0
   -7.5000   -7.7942    0.0000 C   0  0  0  0  0  0  0  0  0  0  0  0
   -8.2500   -9.0933    0.0000 C   0  0  0  0  0  0  0  0  0  0  0  0
   -7.5000  -10.3923    0.0000 C   0  0  0  0  0  0  0  0  0  0  0  0
   -6.0000  -10.3923    0.0000 C   0  0  0  0  0  0  0  0  0  0  0  0
   -3.7500   -6.4952    0.0000 C   0  0  0  0  0  0  0  0  0  0  0  0
   -3.0000   -5.1962    0.0000 O   0  0  0  0  0  0  0  0  0  0  0  0
   -5.2500   -6.4952    0.0000 N   0  0  0  0  0  0  0  0  0  0  0  0
   -6.0000   -5.1962    0.0000 C   0  0  0  0  0  0  0  0  0  0  0  0
   -7.5000   -5.1962    0.0000 C   0  0  0  0  0  0  0  0  0  0  0  0
   -8.2500   -3.8971    0.0000 C   0  0  0  0  0  0  0  0  0  0  0  0
   -7.5000   -2.5981    0.0000 C   0  0  0  0  0  0  0  0  0  0  0  0
   -8.2500   -1.2990    0.0000 C   0  0  0  0  0  0  0  0  0  0  0  0
   -9.7500   -1.2990    0.0000 C   0  0  0  0  0  0  0  0  0  0  0  0
  -10.5000   -2.5981    0.0000 C   0  0  0  0  0  0  0  0  0  0  0  0
   -9.7500   -3.8971    0.0000 C   0  0  0  0  0  0  0  0  0  0  0  0
   -5.2500   -3.8971    0.0000 C   0  0  0  0  0  0  0  0  0  0  0  0
   -3.7500   -3.8971    0.0000 O   0  0  0  0  0  0  0  0  0  0  0  0
   -6.0000   -2.5981    0.0000 N   0  0  0  0  0  0  0  0  0  0  0  0
   -5.2500   -1.2990    0.0000 C   0  0  0  0  0  0  0  0  0  0  0  0
   -6.0000   -0.0000    0.0000 C   0  0  0  0  0  0  0  0  0  0  0  0
   -5.2500    1.2990    0.0000 C   0  0  0  0  0  0  0  0  0  0  0  0
   -3.7500    1.2990    0.0000 C   0  0  0  0  0  0  0  0  0  0  0  0
   -3.0000    2.5981    0.0000 C   0  0  0  0  0  0  0  0  0  0  0  0
   -3.7500    3.8971    0.0000 C   0  0  0  0  0  0  0  0  0  0  0  0
   -5.2500    3.8971    0.0000 C   0  0  0  0  0  0  0  0  0  0  0  0
   -6.0000    2.5981    0.0000 C   0  0  0  0  0  0  0  0  0  0  0  0
   -3.7500   -1.2990    0.0000 C   0  0  0  0  0  0  0  0  0  0  0  0
   -3.0000   -2.5981    0.0000 O   0  0  0  0  0  0  0  0  0  0  0  0
   -3.0000   -0.0000    0.0000 O   0  0  0  0  0  0  0  0  0  0  0  0
    1.5000   -2.5981    0.0000 O   0  0  0  0  0  0  0  0  0  0  0  0
    0.7500   -1.2990    0.0000 C   0  0  0  0  0  0  0  0  0  0  0  0
    1.5000    0.0000    0.0000 C   0  0  0  0  0  0  0  0  0  0  0  0
    0.7500    1.2990    0.0000 C   0  0  0  0  0  0  0  0  0  0  0  0
   -0.7500    1.2990    0.0000 C   0  0  0  0  0  0  0  0  0  0  0  0
   -1.5000    0.0000    0.0000 C   0  0  0  0  0  0  0  0  0  0  0  0
    1.7010   -0.7500    0.0000 C   0  0  0  0  0  0  0  0  0  0  0  0
    3.0000   -0.0000    0.0000 C   0  0  0  0  0  0  0  0  0  0  0  0
    2.2500    1.2990    0.0000 C   0  0  0  0  0  0  0  0  0  0  0  0
    2.2500   -1.2990    0.0000 C   0  0  0  0  0  0  0  0  0  0  0  0
   -0.7500   -1.2990    0.0000 C   0  0  0  0  0  0  0  0  0  0  0  0
  1  2  2  0
  2  3  1  0
  3  4  1  0
  4  5  1  0
  5  6  1  0
  6  7  2  0
  7  8  1  0
  8  9  2  0
  9 10  1  0
 10 11  2  0
  4 12  1  0
 12 13  2  0
 12 14  1  0
 14 15  1  0
 15 16  1  0
 16 17  1  0
 17 18  2  0
 18 19  1  0
 19 20  2  0
 20 21  1  0
 21 22  2  0
 15 23  1  0
 23 24  2  0
 23 25  1  0
 25 26  1  0
 26 27  1  0
 27 28  1  0
 28 29  2  0
 29 30  1  0
 30 31  2  0
 31 32  1  0
 32 33  2  0
 26 34  1  0
 34 35  2  0
 34 36  1  0
 36 37  1  0
 37 38  1  0
 38 39  1  0
 39 40  2  0
 40 41  1  0
 41 42  2  0
 42 43  1  0
 43 44  2  0
 37 45  1  0
 45 46  2  0
 45 47  1  0
  2 48  1  0
 48 49  1  0
 49 50  1  0
 50 51  1  0
 51 52  1  0
 52 53  1  0
 53 54  1  0
 54 55  1  0
 55 56  1  0
 55 57  1  0
 53 58  1  0
 11  6  1  0
 22 17  1  0
 33 28  1  0
 44 39  1  0
 57 49  1  0
 58 49  1  0
 56 51  1  0
M  END
>  <Title>  (24) 
idAAAXgen4

$$$$

     RDKit          2D

 58 63  0  0  0  0  0  0  0  0999 V2000
    2.5860   12.3558    0.0000 C   0  0  0  0  0  0  0  0  0  0  0  0
    1.0860   12.3558    0.0000 C   0  0  0  0  0  0  0  0  0  0  0  0
    0.3360   13.6549    0.0000 C   0  0  0  0  0  0  0  0  0  0  0  0
    0.3360   11.0568    0.0000 C   0  0  0  0  0  0  0  0  0  0  0  0
   -1.1640   11.0568    0.0000 N   0  0  0  0  0  0  0  0  0  0  0  0
   -1.9140    9.7578    0.0000 C   0  0  0  0  0  0  0  0  0  0  0  0
   -3.4140    9.7578    0.0000 C   0  0  0  0  0  0  0  0  0  0  0  0
   -4.1640   11.0568    0.0000 O   0  0  0  0  0  0  0  0  0  0  0  0
   -4.1640    8.4587    0.0000 C   0  0  0  0  0  0  0  0  0  0  0  0
   -5.6640    8.4587    0.0000 C   0  0  0  0  0  0  0  0  0  0  0  0
   -6.4140    9.7578    0.0000 C   0  0  0  0  0  0  0  0  0  0  0  0
   -7.9140    9.7578    0.0000 C   0  0  0  0  0  0  0  0  0  0  0  0
   -8.6640    8.4587    0.0000 C   0  0  0  0  0  0  0  0  0  0  0  0
  -10.1640    8.4587    0.0000 C   0  0  0  0  0  0  0  0  0  0  0  0
  -10.9140    9.7578    0.0000 C   0  0  0  0  0  0  0  0  0  0  0  0
  -10.1640   11.0568    0.0000 C   0  0  0  0  0  0  0  0  0  0  0  0
   -8.6640   11.0568    0.0000 C   0  0  0  0  0  0  0  0  0  0  0  0
   -6.4140    7.1597    0.0000 N   0  0  0  0  0  0  0  0  0  0  0  0
   -5.6640    5.8606    0.0000 C   0  0  0  0  0  0  0  0  0  0  0  0
   -4.1640    5.8606    0.0000 O   0  0  0  0  0  0  0  0  0  0  0  0
   -6.4140    4.5616    0.0000 C   0  0  0  0  0  0  0  0  0  0  0  0
   -7.9140    4.5616    0.0000 C   0  0  0  0  0  0  0  0  0  0  0  0
   -8.6640    3.2626    0.0000 C   0  0  0  0  0  0  0  0  0  0  0  0
   -7.9140    1.9635    0.0000 C   0  0  0  0  0  0  0  0  0  0  0  0
   -8.6640    0.6645    0.0000 C   0  0  0  0  0  0  0  0  0  0  0  0
  -10.1640    0.6645    0.0000 C   0  0  0  0  0  0  0  0  0  0  0  0
  -10.9140    1.9635    0.0000 C   0  0  0  0  0  0  0  0  0  0  0  0
  -10.1640    3.2626    0.0000 C   0  0  0  0  0  0  0  0  0  0  0  0
   -5.6640    3.2626    0.0000 N   0  0  0  0  0  0  0  0  0  0  0  0
   -4.1640    3.2626    0.0000 C   0  0  0  0  0  0  0  0  0  0  0  0
   -3.4140    4.5616    0.0000 O   0  0  0  0  0  0  0  0  0  0  0  0
   -3.4140    1.9635    0.0000 O   0  0  0  0  0  0  0  0  0  0  0  0
   -1.9140    1.9635    0.0000 C   0  0  0  0  0  0  0  0  0  0  0  0
   -1.0323    3.1771    0.0000 C   0  0  0  0  0  0  0  0  0  0  0  0
    0.3943    2.7135    0.0000 O   0  0  0  0  0  0  0  0  0  0  0  0
    0.3943    1.2135    0.0000 C   0  0  0  0  0  0  0  0  0  0  0  0
    1.2760    0.0000    0.0000 O   0  0  0  0  0  0  0  0  0  0  0  0
    0.3943   -1.2135    0.0000 C   0  0  0  0  0  0  0  0  0  0  0  0
   -1.0323   -0.7500    0.0000 C   0  0  0  0  0  0  0  0  0  0  0  0
   -1.0323    0.7500    0.0000 C   0  0  0  0  0  0  0  0  0  0  0  0
   -1.9140   12.3558    0.0000 S   0  0  0  0  0  0  0  0  0  0  0  0
   -3.2130   11.6058    0.0000 O   0  0  0  0  0  0  0  0  0  0  0  0
   -0.6149   13.1058    0.0000 O   0  0  0  0  0  0  0  0  0  0  0  0
   -2.6640   13.6549    0.0000 C   0  0  0  0  0  0  0  0  0  0  0  0
   -1.9140   14.9539    0.0000 C   0  0  0  0  0  0  0  0  0  0  0  0
   -2.6640   16.2529    0.0000 C   0  0  0  0  0  0  0  0  0  0  0  0
   -4.1640   16.2529    0.0000 C   0  0  0  0  0  0  0  0  0  0  0  0
   -4.9140   17.5520    0.0000 N   0  0  0  0  0  0  0  0  0  0  0  0
   -4.1640   18.8510    0.0000 C   0  0  0  0  0  0  0  0  0  0  0  0
   -2.6640   18.8510    0.0000 O   0  0  0  0  0  0  0  0  0  0  0  0
   -4.9140   20.1501    0.0000 C   0  0  0  0  0  0  0  0  0  0  0  0
   -4.1640   21.4491    0.0000 C   0  0  0  0  0  0  0  0  0  0  0  0
   -4.9140   22.7481    0.0000 C   0  0  0  0  0  0  0  0  0  0  0  0
   -6.4140   22.7481    0.0000 C   0  0  0  0  0  0  0  0  0  0  0  0
   -7.1640   21.4491    0.0000 C   0  0  0  0  0  0  0  0  0  0  0  0
   -6.4140   20.1501    0.0000 C   0  0  0  0  0  0  0  0  0  0  0  0
   -4.9140   14.9539    0.0000 C   0  0  0  0  0  0  0  0  0  0  0  0
   -4.1640   13.6549    0.0000 C   0  0  0  0  0  0  0  0  0  0  0  0
  1  2  1  0
  2  3  1  0
  2  4  1  0
  4  5  1  0
  5  6  1  0
  6  7  1  0
  7  8  1  0
  7  9  1  0
  9 10  1  0
 10 11  1  0
 11 12  1  0
 12 13  2  0
 13 14  1  0
 14 15  2  0
 15 16  1  0
 16 17  2  0
 10 18  1  0
 18 19  1  0
 19 20  2  0
 19 21  1  0
 21 22  1  0
 22 23  1  0
 23 24  2  0
 24 25  1  0
 25 26  2  0
 26 27  1  0
 27 28  2  0
 21 29  1  0
 29 30  1  0
 30 31  2  0
 30 32  1  0
 32 33  1  0
 33 34  1  0
 34 35  1  0
 35 36  1  0
 36 37  1  0
 37 38  1  0
 38 39  1  0
 39 40  1  0
  5 41  1  0
 41 42  2  0
 41 43  2  0
 41 44  1  0
 44 45  2  0
 45 46  1  0
 46 47  2  0
 47 48  1  0
 48 49  1  0
 49 50  2  0
 49 51  1  0
 51 52  2  0
 52 53  1  0
 53 54  2  0
 54 55  1  0
 55 56  2  0
 47 57  1  0
 57 58  2  0
 17 12  1  0
 28 23  1  0
 40 33  1  0
 58 44  1  0
 40 36  1  0
 56 51  1  0
M  END
>  <Title>  (25) 
idAAAYgen4

$$$$

     RDKit          2D

 49 52  0  0  0  0  0  0  0  0999 V2000
    5.2500   -2.7990    0.0000 C   0  0  0  0  0  0  0  0  0  0  0  0
    5.2500   -1.2990    0.0000 C   0  0  0  0  0  0  0  0  0  0  0  0
    5.2500    0.2010    0.0000 C   0  0  0  0  0  0  0  0  0  0  0  0
    6.7500   -1.2990    0.0000 C   0  0  0  0  0  0  0  0  0  0  0  0
    3.7500   -1.2990    0.0000 N   0  0  0  0  0  0  0  0  0  0  0  0
    3.0000    0.0000    0.0000 C   0  0  0  0  0  0  0  0  0  0  0  0
    3.7500    1.2990    0.0000 O   0  0  0  0  0  0  0  0  0  0  0  0
    1.5000    0.0000    0.0000 C   0  0  0  0  0  0  0  0  0  0  0  0
    0.7500   -1.2990    0.0000 C   0  0  0  0  0  0  0  0  0  0  0  0
   -0.7500   -1.2990    0.0000 C   0  0  0  0  0  0  0  0  0  0  0  0
   -1.5000    0.0000    0.0000 C   0  0  0  0  0  0  0  0  0  0  0  0
   -0.7500    1.2990    0.0000 C   0  0  0  0  0  0  0  0  0  0  0  0
    0.7500    1.2990    0.0000 C   0  0  0  0  0  0  0  0  0  0  0  0
    1.5000    2.5981    0.0000 C   0  0  0  0  0  0  0  0  0  0  0  0
    0.7500    3.8971    0.0000 O   0  0  0  0  0  0  0  0  0  0  0  0
    3.0000    2.5981    0.0000 N   0  0  0  0  0  0  0  0  0  0  0  0
    3.7500    3.8971    0.0000 C   0  0  0  0  0  0  0  0  0  0  0  0
    5.2500    3.8971    0.0000 C   0  0  0  0  0  0  0  0  0  0  0  0
    6.0000    5.1962    0.0000 C   0  0  0  0  0  0  0  0  0  0  0  0
    7.5000    5.1962    0.0000 C   0  0  0  0  0  0  0  0  0  0  0  0
    8.2500    6.4952    0.0000 C   0  0  0  0  0  0  0  0  0  0  0  0
    7.5000    7.7942    0.0000 C   0  0  0  0  0  0  0  0  0  0  0  0
    6.0000    7.7942    0.0000 C   0  0  0  0  0  0  0  0  0  0  0  0
    5.2500    6.4952    0.0000 C   0  0  0  0  0  0  0  0  0  0  0  0
    3.0000    5.1962    0.0000 C   0  0  0  0  0  0  0  0  0  0  0  0
    1.5000    5.1962    0.0000 O   0  0  0  0  0  0  0  0  0  0  0  0
    3.7500    6.4952    0.0000 N   0  0  0  0  0  0  0  0  0  0  0  0
    3.0000    7.7942    0.0000 C   0  0  0  0  0  0  0  0  0  0  0  0
    3.7500    9.0933    0.0000 C   0  0  0  0  0  0  0  0  0  0  0  0
    3.0000   10.3923    0.0000 C   0  0  0  0  0  0  0  0  0  0  0  0
    3.7500   11.6913    0.0000 C   0  0  0  0  0  0  0  0  0  0  0  0
    3.0000   12.9904    0.0000 C   0  0  0  0  0  0  0  0  0  0  0  0
    1.5000   12.9904    0.0000 C   0  0  0  0  0  0  0  0  0  0  0  0
    0.7500   11.6913    0.0000 C   0  0  0  0  0  0  0  0  0  0  0  0
    1.5000   10.3923    0.0000 C   0  0  0  0  0  0  0  0  0  0  0  0
    1.5000    7.7942    0.0000 C   0  0  0  0  0  0  0  0  0  0  0  0
    0.7500    6.4952    0.0000 O   0  0  0  0  0  0  0  0  0  0  0  0
    0.7500    9.0933    0.0000 N   0  0  0  0  0  0  0  0  0  0  0  0
   -0.7500    9.0933    0.0000 C   0  0  0  0  0  0  0  0  0  0  0  0
   -1.5000   10.3923    0.0000 C   0  0  0  0  0  0  0  0  0  0  0  0
   -3.0000   10.3923    0.0000 C   0  0  0  0  0  0  0  0  0  0  0  0
   -3.7500   11.6913    0.0000 C   0  0  0  0  0  0  0  0  0  0  0  0
   -5.2500   11.6913    0.0000 C   0  0  0  0  0  0  0  0  0  0  0  0
   -6.0000   10.3923    0.0000 C   0  0  0  0  0  0  0  0  0  0  0  0
   -5.2500    9.0933    0.0000 C   0  0  0  0  0  0  0  0  0  0  0  0
   -3.7500    9.0933    0.0000 C   0  0  0  0  0  0  0  0  0  0  0  0
   -1.5000    7.7942    0.0000 C   0  0  0  0  0  0  0  0  0  0  0  0
   -0.7500    6.4952    0.0000 O   0  0  0  0  0  0  0  0  0  0  0  0
   -3.0000    7.7942    0.0000 O   0  0  0  0  0  0  0  0  0  0  0  0
  1  2  1  0
  2  3  1  0
  2  4  1  0
  2  5  1  0
  5  6  1  0
  6  7  2  0
  6  8  1  0
  8  9  1  0
  9 10  1  0
 10 11  1  0
 11 12  1  0
 12 13  1  0
 13 14  1  0
 14 15  2  0
 14 16  1  0
 16 17  1  0
 17 18  1  0
 18 19  1  0
 19 20  2  0
 20 21  1  0
 21 22  2  0
 22 23  1  0
 23 24  2  0
 17 25  1  0
 25 26  2  0
 25 27  1  0
 27 28  1  0
 28 29  1  0
 29 30  1  0
 30 31  2  0
 31 32  1  0
 32 33  2  0
 33 34  1  0
 34 35  2  0
 28 36  1  0
 36 37  2  0
 36 38  1  0
 38 39  1  0
 39 40  1  0
 40 41  1  0
 41 42  2  0
 42 43  1  0
 43 44  2  0
 44 45  1  0
 45 46  2  0
 39 47  1  0
 47 48  2  0
 47 49  1  0
 13  8  1  0
 24 19  1  0
 35 30  1  0
 46 41  1  0
M  END
>  <Title>  (26) 
idAAAZgen4

$$$$

     RDKit          2D

 68 74  0  0  0  0  0  0  0  0999 V2000
    9.3738    0.3042    0.0000 C   0  0  0  0  0  0  0  0  0  0  0  0
    8.9102    1.7308    0.0000 C   0  0  0  0  0  0  0  0  0  0  0  0
    7.4430    2.0426    0.0000 C   0  0  0  0  0  0  0  0  0  0  0  0
    6.9795    3.4692    0.0000 C   0  0  0  0  0  0  0  0  0  0  0  0
    5.5123    3.7811    0.0000 O   0  0  0  0  0  0  0  0  0  0  0  0
    5.0487    5.2077    0.0000 C   0  0  0  0  0  0  0  0  0  0  0  0
    6.0524    6.3224    0.0000 C   0  0  0  0  0  0  0  0  0  0  0  0
    5.5889    7.7490    0.0000 C   0  0  0  0  0  0  0  0  0  0  0  0
    4.1217    8.0608    0.0000 C   0  0  0  0  0  0  0  0  0  0  0  0
    3.1180    6.9461    0.0000 C   0  0  0  0  0  0  0  0  0  0  0  0
    3.5815    5.5195    0.0000 C   0  0  0  0  0  0  0  0  0  0  0  0
    2.5778    4.4048    0.0000 C   0  0  0  0  0  0  0  0  0  0  0  0
    2.8897    2.9376    0.0000 C   0  0  0  0  0  0  0  0  0  0  0  0
    1.5906    2.1876    0.0000 C   0  0  0  0  0  0  0  0  0  0  0  0
    0.4759    3.1913    0.0000 C   0  0  0  0  0  0  0  0  0  0  0  0
    1.0860    4.5616    0.0000 N   0  0  0  0  0  0  0  0  0  0  0  0
    0.3360    5.8606    0.0000 C   0  0  0  0  0  0  0  0  0  0  0  0
   -1.1640    5.8606    0.0000 O   0  0  0  0  0  0  0  0  0  0  0  0
    1.0860    7.1597    0.0000 C   0  0  0  0  0  0  0  0  0  0  0  0
    2.5860    7.1597    0.0000 C   0  0  0  0  0  0  0  0  0  0  0  0
    3.3360    5.8606    0.0000 C   0  0  0  0  0  0  0  0  0  0  0  0
    2.5860    4.5616    0.0000 C   0  0  0  0  0  0  0  0  0  0  0  0
    3.3360    3.2626    0.0000 C   0  0  0  0  0  0  0  0  0  0  0  0
    4.8360    3.2626    0.0000 C   0  0  0  0  0  0  0  0  0  0  0  0
    5.5860    4.5616    0.0000 C   0  0  0  0  0  0  0  0  0  0  0  0
    4.8360    5.8606    0.0000 C   0  0  0  0  0  0  0  0  0  0  0  0
    0.3360    8.4587    0.0000 N   0  0  0  0  0  0  0  0  0  0  0  0
   -1.1640    8.4587    0.0000 C   0  0  0  0  0  0  0  0  0  0  0  0
   -1.9140    7.1597    0.0000 O   0  0  0  0  0  0  0  0  0  0  0  0
   -1.9140    9.7578    0.0000 C   0  0  0  0  0  0  0  0  0  0  0  0
   -1.1640   11.0568    0.0000 C   0  0  0  0  0  0  0  0  0  0  0  0
    0.3360   11.0568    0.0000 C   0  0  0  0  0  0  0  0  0  0  0  0
    1.0860   12.3558    0.0000 N   0  0  0  0  0  0  0  0  0  0  0  0
    1.0860    9.7578    0.0000 O   0  0  0  0  0  0  0  0  0  0  0  0
   -3.4140    9.7578    0.0000 N   0  0  0  0  0  0  0  0  0  0  0  0
   -4.1640    8.4587    0.0000 C   0  0  0  0  0  0  0  0  0  0  0  0
   -3.4140    7.1597    0.0000 O   0  0  0  0  0  0  0  0  0  0  0  0
   -5.6640    8.4587    0.0000 C   0  0  0  0  0  0  0  0  0  0  0  0
   -6.4140    9.7578    0.0000 C   0  0  0  0  0  0  0  0  0  0  0  0
   -5.6640   11.0568    0.0000 C   0  0  0  0  0  0  0  0  0  0  0  0
   -4.1640   11.0568    0.0000 C   0  0  0  0  0  0  0  0  0  0  0  0
   -3.4140   12.3558    0.0000 C   0  0  0  0  0  0  0  0  0  0  0  0
   -4.1640   13.6549    0.0000 C   0  0  0  0  0  0  0  0  0  0  0  0
   -5.6640   13.6549    0.0000 C   0  0  0  0  0  0  0  0  0  0  0  0
   -6.4140   12.3558    0.0000 C   0  0  0  0  0  0  0  0  0  0  0  0
   -6.4140    7.1597    0.0000 N   0  0  0  0  0  0  0  0  0  0  0  0
   -5.6640    5.8606    0.0000 C   0  0  0  0  0  0  0  0  0  0  0  0
   -4.1640    5.8606    0.0000 O   0  0  0  0  0  0  0  0  0  0  0  0
   -6.4140    4.5616    0.0000 C   0  0  0  0  0  0  0  0  0  0  0  0
   -7.9140    4.5616    0.0000 C   0  0  0  0  0  0  0  0  0  0  0  0
   -8.6640    5.8606    0.0000 C   0  0  0  0  0  0  0  0  0  0  0  0
   -7.9140    7.1597    0.0000 C   0  0  0  0  0  0  0  0  0  0  0  0
   -8.6640    8.4587    0.0000 C   0  0  0  0  0  0  0  0  0  0  0  0
  -10.1640    8.4587    0.0000 C   0  0  0  0  0  0  0  0  0  0  0  0
  -10.9140    7.1597    0.0000 C   0  0  0  0  0  0  0  0  0  0  0  0
  -10.1640    5.8606    0.0000 C   0  0  0  0  0  0  0  0  0  0  0  0
   -5.6640    3.2626    0.0000 N   0  0  0  0  0  0  0  0  0  0  0  0
   -4.1640    3.2626    0.0000 C   0  0  0  0  0  0  0  0  0  0  0  0
   -3.4140    4.5616    0.0000 O   0  0  0  0  0  0  0  0  0  0  0  0
   -3.4140    1.9635    0.0000 O   0  0  0  0  0  0  0  0  0  0  0  0
   -1.9140    1.9635    0.0000 C   0  0  0  0  0  0  0  0  0  0  0  0
   -1.0323    3.1771    0.0000 C   0  0  0  0  0  0  0  0  0  0  0  0
    0.3943    2.7135    0.0000 O   0  0  0  0  0  0  0  0  0  0  0  0
    0.3943    1.2135    0.0000 C   0  0  0  0  0  0  0  0  0  0  0  0
    1.2760    0.0000    0.0000 O   0  0  0  0  0  0  0  0  0  0  0  0
    0.3943   -1.2135    0.0000 C   0  0  0  0  0  0  0  0  0  0  0  0
   -1.0323   -0.7500    0.0000 C   0  0  0  0  0  0  0  0  0  0  0  0
   -1.0323    0.7500    0.0000 C   0  0  0  0  0  0  0  0  0  0  0  0
  1  2  1  0
  2  3  1  0
  3  4  1  0
  4  5  1  0
  5  6  1  0
  6  7  2  0
  7  8  1  0
  8  9  2  0
  9 10  1  0
 10 11  2  0
 11 12  1  0
 12 13  1  0
 13 14  1  0
 14 15  1  0
 15 16  1  0
 16 17  1  0
 17 18  2  0
 17 19  1  0
 19 20  1  0
 20 21  1  0
 21 22  2  0
 22 23  1  0
 23 24  2  0
 24 25  1  0
 25 26  2  0
 19 27  1  0
 27 28  1  0
 28 29  2  0
 28 30  1  0
 30 31  1  0
 31 32  1  0
 32 33  1  0
 32 34  2  0
 30 35  1  0
 35 36  1  0
 36 37  2  0
 36 38  1  0
 38 39  1  0
 39 40  1  0
 40 41  2  0
 41 42  1  0
 42 43  2  0
 43 44  1  0
 44 45  2  0
 38 46  1  0
 46 47  1  0
 47 48  2  0
 47 49  1  0
 49 50  1  0
 50 51  1  0
 51 52  2  0
 52 53  1  0
 53 54  2  0
 54 55  1  0
 55 56  2  0
 49 57  1  0
 57 58  1  0
 58 59  2  0
 58 60  1  0
 60 61  1  0
 61 62  1  0
 62 63  1  0
 63 64  1  0
 64 65  1  0
 65 66  1  0
 66 67  1  0
 67 68  1  0
 11  6  1  0
 16 12  1  0
 26 21  1  0
 45 40  1  0
 56 51  1  0
 68 61  1  0
 68 64  1  0
M  END
>  <Title>  (27) 
idAABAgen4

$$$$

     RDKit          2D

 36 38  0  0  0  0  0  0  0  0999 V2000
   -1.6727   -2.2149    0.0000 C   0  0  0  0  0  0  0  0  0  0  0  0
   -3.1399   -2.5268    0.0000 C   0  0  0  0  0  0  0  0  0  0  0  0
   -4.2546   -1.5231    0.0000 C   0  0  0  0  0  0  0  0  0  0  0  0
   -5.5537   -2.2731    0.0000 C   0  0  0  0  0  0  0  0  0  0  0  0
   -5.2418   -3.7403    0.0000 C   0  0  0  0  0  0  0  0  0  0  0  0
   -3.7500   -3.8971    0.0000 C   0  0  0  0  0  0  0  0  0  0  0  0
   -3.0000   -5.1962    0.0000 C   0  0  0  0  0  0  0  0  0  0  0  0
   -3.7500   -6.4952    0.0000 C   0  0  0  0  0  0  0  0  0  0  0  0
   -5.2500   -6.4952    0.0000 C   0  0  0  0  0  0  0  0  0  0  0  0
   -6.0000   -7.7942    0.0000 N   0  0  0  0  0  0  0  0  0  0  0  0
   -6.0000   -5.1962    0.0000 O   0  0  0  0  0  0  0  0  0  0  0  0
   -1.5000   -5.1962    0.0000 C   0  0  0  0  0  0  0  0  0  0  0  0
   -0.7500   -6.4952    0.0000 O   0  0  0  0  0  0  0  0  0  0  0  0
   -0.7500   -3.8971    0.0000 N   0  0  0  0  0  0  0  0  0  0  0  0
    0.7500   -3.8971    0.0000 C   0  0  0  0  0  0  0  0  0  0  0  0
    1.5000   -2.5981    0.0000 C   0  0  0  0  0  0  0  0  0  0  0  0
    0.7500   -1.2990    0.0000 C   0  0  0  0  0  0  0  0  0  0  0  0
    1.5000    0.0000    0.0000 C   0  0  0  0  0  0  0  0  0  0  0  0
    0.7500    1.2990    0.0000 C   0  0  0  0  0  0  0  0  0  0  0  0
   -0.7500    1.2990    0.0000 C   0  0  0  0  0  0  0  0  0  0  0  0
   -1.5000    0.0000    0.0000 C   0  0  0  0  0  0  0  0  0  0  0  0
   -0.7500   -1.2990    0.0000 C   0  0  0  0  0  0  0  0  0  0  0  0
    1.5000   -5.1962    0.0000 C   0  0  0  0  0  0  0  0  0  0  0  0
    3.0000   -5.1962    0.0000 O   0  0  0  0  0  0  0  0  0  0  0  0
    0.7500   -6.4952    0.0000 N   0  0  0  0  0  0  0  0  0  0  0  0
    1.5000   -7.7942    0.0000 C   0  0  0  0  0  0  0  0  0  0  0  0
    0.7500   -9.0933    0.0000 C   0  0  0  0  0  0  0  0  0  0  0  0
    1.5000  -10.3923    0.0000 C   0  0  0  0  0  0  0  0  0  0  0  0
    0.7500  -11.6913    0.0000 C   0  0  0  0  0  0  0  0  0  0  0  0
    1.5000  -12.9904    0.0000 C   0  0  0  0  0  0  0  0  0  0  0  0
    3.0000  -12.9904    0.0000 C   0  0  0  0  0  0  0  0  0  0  0  0
    3.7500  -11.6913    0.0000 C   0  0  0  0  0  0  0  0  0  0  0  0
    3.0000  -10.3923    0.0000 C   0  0  0  0  0  0  0  0  0  0  0  0
    3.0000   -7.7942    0.0000 C   0  0  0  0  0  0  0  0  0  0  0  0
    3.7500   -6.4952    0.0000 O   0  0  0  0  0  0  0  0  0  0  0  0
    3.7500   -9.0933    0.0000 O   0  0  0  0  0  0  0  0  0  0  0  0
  1  2  1  0
  2  3  1  0
  3  4  1  0
  4  5  1  0
  5  6  1  0
  6  7  1  0
  7  8  1  0
  8  9  1  0
  9 10  1  0
  9 11  2  0
  7 12  1  0
 12 13  2  0
 12 14  1  0
 14 15  1  0
 15 16  1  0
 16 17  1  0
 17 18  2  0
 18 19  1  0
 19 20  2  0
 20 21  1  0
 21 22  2  0
 15 23  1  0
 23 24  2  0
 23 25  1  0
 25 26  1  0
 26 27  1  0
 27 28  1  0
 28 29  2  0
 29 30  1  0
 30 31  2  0
 31 32  1  0
 32 33  2  0
 26 34  1  0
 34 35  2  0
 34 36  1  0
  6  2  1  0
 22 17  1  0
 33 28  1  0
M  END
>  <Title>  (28) 
idAABBgen4

$$$$

     RDKit          2D

 68 73  0  0  0  0  0  0  0  0999 V2000
   13.5000   -2.5981    0.0000 C   0  0  0  0  0  0  0  0  0  0  0  0
   12.7500   -1.2990    0.0000 C   0  0  0  0  0  0  0  0  0  0  0  0
   11.2500   -1.2990    0.0000 C   0  0  0  0  0  0  0  0  0  0  0  0
   13.5000   -0.0000    0.0000 C   0  0  0  0  0  0  0  0  0  0  0  0
   12.7500    1.2990    0.0000 C   0  0  0  0  0  0  0  0  0  0  0  0
   13.5000    2.5981    0.0000 N   0  0  0  0  0  0  0  0  0  0  0  0
   12.7500    3.8971    0.0000 S   0  0  0  0  0  0  0  0  0  0  0  0
   14.0490    4.6471    0.0000 O   0  0  0  0  0  0  0  0  0  0  0  0
   11.4510    3.1471    0.0000 O   0  0  0  0  0  0  0  0  0  0  0  0
   12.0000    5.1962    0.0000 C   0  0  0  0  0  0  0  0  0  0  0  0
   10.5000    5.1962    0.0000 C   0  0  0  0  0  0  0  0  0  0  0  0
    9.7500    6.4952    0.0000 C   0  0  0  0  0  0  0  0  0  0  0  0
   10.5000    7.7942    0.0000 C   0  0  0  0  0  0  0  0  0  0  0  0
   12.0000    7.7942    0.0000 C   0  0  0  0  0  0  0  0  0  0  0  0
   12.7500    6.4952    0.0000 C   0  0  0  0  0  0  0  0  0  0  0  0
   11.2500    1.2990    0.0000 C   0  0  0  0  0  0  0  0  0  0  0  0
   10.5000    2.5981    0.0000 O   0  0  0  0  0  0  0  0  0  0  0  0
   10.5000   -0.0000    0.0000 N   0  0  0  0  0  0  0  0  0  0  0  0
    9.0000   -0.0000    0.0000 C   0  0  0  0  0  0  0  0  0  0  0  0
    8.2500   -1.2990    0.0000 C   0  0  0  0  0  0  0  0  0  0  0  0
    6.7500   -1.2990    0.0000 C   0  0  0  0  0  0  0  0  0  0  0  0
    6.0000   -2.5981    0.0000 C   0  0  0  0  0  0  0  0  0  0  0  0
    4.5000   -2.5981    0.0000 C   0  0  0  0  0  0  0  0  0  0  0  0
    3.7500   -1.2990    0.0000 C   0  0  0  0  0  0  0  0  0  0  0  0
    4.5000    0.0000    0.0000 C   0  0  0  0  0  0  0  0  0  0  0  0
    6.0000   -0.0000    0.0000 C   0  0  0  0  0  0  0  0  0  0  0  0
    8.2500    1.2990    0.0000 C   0  0  0  0  0  0  0  0  0  0  0  0
    9.0000    2.5981    0.0000 O   0  0  0  0  0  0  0  0  0  0  0  0
    6.7500    1.2990    0.0000 N   0  0  0  0  0  0  0  0  0  0  0  0
    6.0000    2.5981    0.0000 C   0  0  0  0  0  0  0  0  0  0  0  0
    6.7500    3.8971    0.0000 C   0  0  0  0  0  0  0  0  0  0  0  0
    6.0000    5.1962    0.0000 C   0  0  0  0  0  0  0  0  0  0  0  0
    6.7500    6.4952    0.0000 C   0  0  0  0  0  0  0  0  0  0  0  0
    6.0000    7.7942    0.0000 C   0  0  0  0  0  0  0  0  0  0  0  0
    4.5000    7.7942    0.0000 C   0  0  0  0  0  0  0  0  0  0  0  0
    3.7500    6.4952    0.0000 C   0  0  0  0  0  0  0  0  0  0  0  0
    4.5000    5.1962    0.0000 C   0  0  0  0  0  0  0  0  0  0  0  0
    4.5000    2.5981    0.0000 C   0  0  0  0  0  0  0  0  0  0  0  0
    3.7500    1.2990    0.0000 O   0  0  0  0  0  0  0  0  0  0  0  0
    3.7500    3.8971    0.0000 N   0  0  0  0  0  0  0  0  0  0  0  0
    2.2500    3.8971    0.0000 C   0  0  0  0  0  0  0  0  0  0  0  0
    1.5000    2.5981    0.0000 C   0  0  0  0  0  0  0  0  0  0  0  0
    0.0000    2.5981    0.0000 C   0  0  0  0  0  0  0  0  0  0  0  0
   -0.7500    1.2990    0.0000 C   0  0  0  0  0  0  0  0  0  0  0  0
   -2.2500    1.2990    0.0000 C   0  0  0  0  0  0  0  0  0  0  0  0
   -3.0000    2.5981    0.0000 C   0  0  0  0  0  0  0  0  0  0  0  0
   -2.2500    3.8971    0.0000 C   0  0  0  0  0  0  0  0  0  0  0  0
   -0.7500    3.8971    0.0000 C   0  0  0  0  0  0  0  0  0  0  0  0
    1.5000    5.1962    0.0000 C   0  0  0  0  0  0  0  0  0  0  0  0
    2.2500    6.4952    0.0000 O   0  0  0  0  0  0  0  0  0  0  0  0
    0.0000    5.1962    0.0000 N   0  0  0  0  0  0  0  0  0  0  0  0
   -0.7500    6.4952    0.0000 C   0  0  0  0  0  0  0  0  0  0  0  0
   -2.2500    6.4952    0.0000 C   0  0  0  0  0  0  0  0  0  0  0  0
   -3.0000    7.7942    0.0000 C   0  0  0  0  0  0  0  0  0  0  0  0
   -4.5000    7.7942    0.0000 C   0  0  0  0  0  0  0  0  0  0  0  0
   -5.2500    9.0933    0.0000 C   0  0  0  0  0  0  0  0  0  0  0  0
   -4.5000   10.3923    0.0000 C   0  0  0  0  0  0  0  0  0  0  0  0
   -3.0000   10.3923    0.0000 C   0  0  0  0  0  0  0  0  0  0  0  0
   -2.2500    9.0933    0.0000 C   0  0  0  0  0  0  0  0  0  0  0  0
    0.0000    7.7942    0.0000 C   0  0  0  0  0  0  0  0  0  0  0  0
    1.5000    7.7942    0.0000 O   0  0  0  0  0  0  0  0  0  0  0  0
   -0.7500    9.0933    0.0000 N   0  0  0  0  0  0  0  0  0  0  0  0
    0.0000   10.3923    0.0000 C   0  0  0  0  0  0  0  0  0  0  0  0
   -0.7500   11.6913    0.0000 C   0  0  0  0  0  0  0  0  0  0  0  0
   -0.0000   12.9904    0.0000 C   0  0  0  0  0  0  0  0  0  0  0  0
    1.5000   12.9904    0.0000 C   0  0  0  0  0  0  0  0  0  0  0  0
    2.2500   11.6913    0.0000 C   0  0  0  0  0  0  0  0  0  0  0  0
    1.5000   10.3923    0.0000 C   0  0  0  0  0  0  0  0  0  0  0  0
  1  2  1  0
  2  3  1  0
  2  4  1  0
  4  5  1  0
  5  6  1  0
  6  7  1  0
  7  8  2  0
  7  9  2  0
  7 10  1  0
 10 11  2  0
 11 12  1  0
 12 13  2  0
 13 14  1  0
 14 15  2  0
  5 16  1  0
 16 17  2  0
 16 18  1  0
 18 19  1  0
 19 20  1  0
 20 21  1  0
 21 22  2  0
 22 23  1  0
 23 24  2  0
 24 25  1  0
 25 26  2  0
 19 27  1  0
 27 28  2  0
 27 29  1  0
 29 30  1  0
 30 31  1  0
 31 32  1  0
 32 33  2  0
 33 34  1  0
 34 35  2  0
 35 36  1  0
 36 37  2  0
 30 38  1  0
 38 39  2  0
 38 40  1  0
 40 41  1  0
 41 42  1  0
 42 43  1  0
 43 44  2  0
 44 45  1  0
 45 46  2  0
 46 47  1  0
 47 48  2  0
 41 49  1  0
 49 50  2  0
 49 51  1  0
 51 52  1  0
 52 53  1  0
 53 54  1  0
 54 55  2  0
 55 56  1  0
 56 57  2  0
 57 58  1  0
 58 59  2  0
 52 60  1  0
 60 61  2  0
 60 62  1  0
 62 63  1  0
 63 64  1  0
 64 65  1  0
 65 66  1  0
 66 67  1  0
 67 68  1  0
 15 10  1  0
 26 21  1  0
 37 32  1  0
 48 43  1  0
 59 54  1  0
 68 63  1  0
M  END
>  <Title>  (29) 
idAABCgen4

$$$$

     RDKit          2D

 65 69  0  0  0  0  0  0  0  0999 V2000
   12.7500   -1.2990    0.0000 C   0  0  0  0  0  0  0  0  0  0  0  0
   13.5000   -0.0000    0.0000 C   0  0  0  0  0  0  0  0  0  0  0  0
   15.0000   -0.0000    0.0000 C   0  0  0  0  0  0  0  0  0  0  0  0
   12.7500    1.2990    0.0000 C   0  0  0  0  0  0  0  0  0  0  0  0
   13.5000    2.5981    0.0000 N   0  0  0  0  0  0  0  0  0  0  0  0
   12.7500    3.8971    0.0000 S   0  0  0  0  0  0  0  0  0  0  0  0
   14.0490    4.6471    0.0000 O   0  0  0  0  0  0  0  0  0  0  0  0
   11.4510    3.1471    0.0000 O   0  0  0  0  0  0  0  0  0  0  0  0
   12.0000    5.1962    0.0000 C   0  0  0  0  0  0  0  0  0  0  0  0
   10.5000    5.1962    0.0000 C   0  0  0  0  0  0  0  0  0  0  0  0
    9.7500    6.4952    0.0000 C   0  0  0  0  0  0  0  0  0  0  0  0
   10.5000    7.7942    0.0000 C   0  0  0  0  0  0  0  0  0  0  0  0
   12.0000    7.7942    0.0000 C   0  0  0  0  0  0  0  0  0  0  0  0
   12.7500    6.4952    0.0000 C   0  0  0  0  0  0  0  0  0  0  0  0
   11.2500    1.2990    0.0000 C   0  0  0  0  0  0  0  0  0  0  0  0
   10.5000    2.5981    0.0000 O   0  0  0  0  0  0  0  0  0  0  0  0
   10.5000   -0.0000    0.0000 N   0  0  0  0  0  0  0  0  0  0  0  0
    9.0000   -0.0000    0.0000 C   0  0  0  0  0  0  0  0  0  0  0  0
    8.2500   -1.2990    0.0000 C   0  0  0  0  0  0  0  0  0  0  0  0
    6.7500   -1.2990    0.0000 C   0  0  0  0  0  0  0  0  0  0  0  0
    6.0000   -2.5981    0.0000 C   0  0  0  0  0  0  0  0  0  0  0  0
    4.5000   -2.5981    0.0000 C   0  0  0  0  0  0  0  0  0  0  0  0
    3.7500   -1.2990    0.0000 C   0  0  0  0  0  0  0  0  0  0  0  0
    4.5000    0.0000    0.0000 C   0  0  0  0  0  0  0  0  0  0  0  0
    6.0000   -0.0000    0.0000 C   0  0  0  0  0  0  0  0  0  0  0  0
    8.2500    1.2990    0.0000 C   0  0  0  0  0  0  0  0  0  0  0  0
    9.0000    2.5981    0.0000 O   0  0  0  0  0  0  0  0  0  0  0  0
    6.7500    1.2990    0.0000 N   0  0  0  0  0  0  0  0  0  0  0  0
    6.0000    2.5981    0.0000 C   0  0  0  0  0  0  0  0  0  0  0  0
    6.7500    3.8971    0.0000 C   0  0  0  0  0  0  0  0  0  0  0  0
    6.0000    5.1962    0.0000 C   0  0  0  0  0  0  0  0  0  0  0  0
    6.7500    6.4952    0.0000 C   0  0  0  0  0  0  0  0  0  0  0  0
    6.0000    7.7942    0.0000 C   0  0  0  0  0  0  0  0  0  0  0  0
    4.5000    7.7942    0.0000 C   0  0  0  0  0  0  0  0  0  0  0  0
    3.7500    6.4952    0.0000 C   0  0  0  0  0  0  0  0  0  0  0  0
    4.5000    5.1962    0.0000 C   0  0  0  0  0  0  0  0  0  0  0  0
    4.5000    2.5981    0.0000 C   0  0  0  0  0  0  0  0  0  0  0  0
    3.7500    1.2990    0.0000 O   0  0  0  0  0  0  0  0  0  0  0  0
    3.7500    3.8971    0.0000 N   0  0  0  0  0  0  0  0  0  0  0  0
    2.2500    3.8971    0.0000 C   0  0  0  0  0  0  0  0  0  0  0  0
    1.5000    2.5981    0.0000 C   0  0  0  0  0  0  0  0  0  0  0  0
    0.0000    2.5981    0.0000 C   0  0  0  0  0  0  0  0  0  0  0  0
   -0.7500    1.2990    0.0000 C   0  0  0  0  0  0  0  0  0  0  0  0
   -2.2500    1.2990    0.0000 C   0  0  0  0  0  0  0  0  0  0  0  0
   -3.0000    2.5981    0.0000 C   0  0  0  0  0  0  0  0  0  0  0  0
   -2.2500    3.8971    0.0000 C   0  0  0  0  0  0  0  0  0  0  0  0
   -0.7500    3.8971    0.0000 C   0  0  0  0  0  0  0  0  0  0  0  0
    1.5000    5.1962    0.0000 C   0  0  0  0  0  0  0  0  0  0  0  0
    2.2500    6.4952    0.0000 O   0  0  0  0  0  0  0  0  0  0  0  0
    0.0000    5.1962    0.0000 N   0  0  0  0  0  0  0  0  0  0  0  0
   -0.7500    6.4952    0.0000 C   0  0  0  0  0  0  0  0  0  0  0  0
   -2.2500    6.4952    0.0000 C   0  0  0  0  0  0  0  0  0  0  0  0
   -3.0000    7.7942    0.0000 C   0  0  0  0  0  0  0  0  0  0  0  0
   -4.5000    7.7942    0.0000 C   0  0  0  0  0  0  0  0  0  0  0  0
   -5.2500    9.0933    0.0000 C   0  0  0  0  0  0  0  0  0  0  0  0
   -4.5000   10.3923    0.0000 C   0  0  0  0  0  0  0  0  0  0  0  0
   -3.0000   10.3923    0.0000 C   0  0  0  0  0  0  0  0  0  0  0  0
   -2.2500    9.0933    0.0000 C   0  0  0  0  0  0  0  0  0  0  0  0
    0.0000    7.7942    0.0000 C   0  0  0  0  0  0  0  0  0  0  0  0
    1.5000    7.7942    0.0000 O   0  0  0  0  0  0  0  0  0  0  0  0
   -0.7500    9.0933    0.0000 O   0  0  0  0  0  0  0  0  0  0  0  0
    0.0000   10.3923    0.0000 C   0  0  0  0  0  0  0  0  0  0  0  0
   -1.2990   11.1423    0.0000 C   0  0  0  0  0  0  0  0  0  0  0  0
    1.2990    9.6423    0.0000 C   0  0  0  0  0  0  0  0  0  0  0  0
    0.7500   11.6913    0.0000 C   0  0  0  0  0  0  0  0  0  0  0  0
  1  2  1  0
  2  3  1  0
  2  4  1  0
  4  5  1  0
  5  6  1  0
  6  7  2  0
  6  8  2  0
  6  9  1  0
  9 10  2  0
 10 11  1  0
 11 12  2  0
 12 13  1  0
 13 14  2  0
  4 15  1  0
 15 16  2  0
 15 17  1  0
 17 18  1  0
 18 19  1  0
 19 20  1  0
 20 21  2  0
 21 22  1  0
 22 23  2  0
 23 24  1  0
 24 25  2  0
 18 26  1  0
 26 27  2  0
 26 28  1  0
 28 29  1  0
 29 30  1  0
 30 31  1  0
 31 32  2  0
 32 33  1  0
 33 34  2  0
 34 35  1  0
 35 36  2  0
 29 37  1  0
 37 38  2  0
 37 39  1  0
 39 40  1  0
 40 41  1  0
 41 42  1  0
 42 43  2  0
 43 44  1  0
 44 45  2  0
 45 46  1  0
 46 47  2  0
 40 48  1  0
 48 49  2  0
 48 50  1  0
 50 51  1  0
 51 52  1  0
 52 53  1  0
 53 54  2  0
 54 55  1  0
 55 56  2  0
 56 57  1  0
 57 58  2  0
 51 59  1  0
 59 60  2  0
 59 61  1  0
 61 62  1  0
 62 63  1  0
 62 64  1  0
 62 65  1  0
 14  9  1  0
 25 20  1  0
 36 31  1  0
 47 42  1  0
 58 53  1  0
M  END
>  <Title>  (30) 
idAABDgen4

$$$$

     RDKit          2D

 71 77  0  0  0  0  0  0  0  0999 V2000
   -3.4140    1.9635    0.0000 C   0  0  0  0  0  0  0  0  0  0  0  0
   -1.9140    1.9635    0.0000 C   0  0  0  0  0  0  0  0  0  0  0  0
   -1.1640    0.6645    0.0000 C   0  0  0  0  0  0  0  0  0  0  0  0
   -1.1640    3.2626    0.0000 C   0  0  0  0  0  0  0  0  0  0  0  0
    0.3360    3.2626    0.0000 N   0  0  0  0  0  0  0  0  0  0  0  0
    1.0860    4.5616    0.0000 C   0  0  0  0  0  0  0  0  0  0  0  0
    0.3360    5.8606    0.0000 C   0  0  0  0  0  0  0  0  0  0  0  0
   -1.1640    5.8606    0.0000 O   0  0  0  0  0  0  0  0  0  0  0  0
    1.0860    7.1597    0.0000 C   0  0  0  0  0  0  0  0  0  0  0  0
    2.5860    7.1597    0.0000 C   0  0  0  0  0  0  0  0  0  0  0  0
    3.3360    5.8606    0.0000 C   0  0  0  0  0  0  0  0  0  0  0  0
    2.5860    4.5616    0.0000 C   0  0  0  0  0  0  0  0  0  0  0  0
    3.3360    3.2626    0.0000 C   0  0  0  0  0  0  0  0  0  0  0  0
    4.8360    3.2626    0.0000 C   0  0  0  0  0  0  0  0  0  0  0  0
    5.5860    4.5616    0.0000 C   0  0  0  0  0  0  0  0  0  0  0  0
    4.8360    5.8606    0.0000 C   0  0  0  0  0  0  0  0  0  0  0  0
    0.3360    8.4587    0.0000 N   0  0  0  0  0  0  0  0  0  0  0  0
   -1.1640    8.4587    0.0000 C   0  0  0  0  0  0  0  0  0  0  0  0
   -1.9140    7.1597    0.0000 O   0  0  0  0  0  0  0  0  0  0  0  0
   -1.9140    9.7578    0.0000 C   0  0  0  0  0  0  0  0  0  0  0  0
   -1.1640   11.0568    0.0000 C   0  0  0  0  0  0  0  0  0  0  0  0
    0.3360   11.0568    0.0000 C   0  0  0  0  0  0  0  0  0  0  0  0
    1.0860    9.7578    0.0000 C   0  0  0  0  0  0  0  0  0  0  0  0
    2.5860    9.7578    0.0000 C   0  0  0  0  0  0  0  0  0  0  0  0
    3.3360   11.0568    0.0000 C   0  0  0  0  0  0  0  0  0  0  0  0
    2.5860   12.3558    0.0000 C   0  0  0  0  0  0  0  0  0  0  0  0
    1.0860   12.3558    0.0000 C   0  0  0  0  0  0  0  0  0  0  0  0
   -3.4140    9.7578    0.0000 N   0  0  0  0  0  0  0  0  0  0  0  0
   -4.1640    8.4587    0.0000 C   0  0  0  0  0  0  0  0  0  0  0  0
   -3.4140    7.1597    0.0000 O   0  0  0  0  0  0  0  0  0  0  0  0
   -5.6640    8.4587    0.0000 C   0  0  0  0  0  0  0  0  0  0  0  0
   -6.4140    9.7578    0.0000 C   0  0  0  0  0  0  0  0  0  0  0  0
   -5.6640   11.0568    0.0000 C   0  0  0  0  0  0  0  0  0  0  0  0
   -4.1640   11.0568    0.0000 C   0  0  0  0  0  0  0  0  0  0  0  0
   -3.4140   12.3558    0.0000 C   0  0  0  0  0  0  0  0  0  0  0  0
   -4.1640   13.6549    0.0000 C   0  0  0  0  0  0  0  0  0  0  0  0
   -5.6640   13.6549    0.0000 C   0  0  0  0  0  0  0  0  0  0  0  0
   -6.4140   12.3558    0.0000 C   0  0  0  0  0  0  0  0  0  0  0  0
   -6.4140    7.1597    0.0000 N   0  0  0  0  0  0  0  0  0  0  0  0
   -7.9140    7.1597    0.0000 C   0  0  0  0  0  0  0  0  0  0  0  0
   -8.6640    8.4587    0.0000 O   0  0  0  0  0  0  0  0  0  0  0  0
   -8.6640    5.8606    0.0000 C   0  0  0  0  0  0  0  0  0  0  0  0
   -7.9140    4.5616    0.0000 C   0  0  0  0  0  0  0  0  0  0  0  0
   -6.4140    4.5616    0.0000 C   0  0  0  0  0  0  0  0  0  0  0  0
   -5.6640    5.8606    0.0000 C   0  0  0  0  0  0  0  0  0  0  0  0
   -4.1640    5.8606    0.0000 C   0  0  0  0  0  0  0  0  0  0  0  0
   -3.4140    4.5616    0.0000 C   0  0  0  0  0  0  0  0  0  0  0  0
   -4.1640    3.2626    0.0000 C   0  0  0  0  0  0  0  0  0  0  0  0
   -5.6640    3.2626    0.0000 C   0  0  0  0  0  0  0  0  0  0  0  0
  -10.1640    5.8606    0.0000 N   0  0  0  0  0  0  0  0  0  0  0  0
  -10.9140    7.1597    0.0000 C   0  0  0  0  0  0  0  0  0  0  0  0
  -10.1640    8.4587    0.0000 O   0  0  0  0  0  0  0  0  0  0  0  0
  -12.4140    7.1597    0.0000 O   0  0  0  0  0  0  0  0  0  0  0  0
  -13.1640    5.8606    0.0000 C   0  0  0  0  0  0  0  0  0  0  0  0
  -12.5539    4.4903    0.0000 C   0  0  0  0  0  0  0  0  0  0  0  0
  -13.6686    3.4866    0.0000 O   0  0  0  0  0  0  0  0  0  0  0  0
  -14.9676    4.2366    0.0000 C   0  0  0  0  0  0  0  0  0  0  0  0
  -16.4594    4.0798    0.0000 O   0  0  0  0  0  0  0  0  0  0  0  0
  -17.0695    5.4502    0.0000 C   0  0  0  0  0  0  0  0  0  0  0  0
  -15.9548    6.4538    0.0000 C   0  0  0  0  0  0  0  0  0  0  0  0
  -14.6557    5.7038    0.0000 C   0  0  0  0  0  0  0  0  0  0  0  0
    1.0860    1.9635    0.0000 S   0  0  0  0  0  0  0  0  0  0  0  0
   -0.2130    1.2135    0.0000 O   0  0  0  0  0  0  0  0  0  0  0  0
    2.3851    2.7135    0.0000 O   0  0  0  0  0  0  0  0  0  0  0  0
    1.8360    0.6645    0.0000 C   0  0  0  0  0  0  0  0  0  0  0  0
    3.3360    0.6645    0.0000 C   0  0  0  0  0  0  0  0  0  0  0  0
    4.0860   -0.6346    0.0000 C   0  0  0  0  0  0  0  0  0  0  0  0
    3.3360   -1.9336    0.0000 C   0  0  0  0  0  0  0  0  0  0  0  0
    4.0860   -3.2326    0.0000 O   0  0  0  0  0  0  0  0  0  0  0  0
    1.8360   -1.9336    0.0000 C   0  0  0  0  0  0  0  0  0  0  0  0
    1.0860   -0.6346    0.0000 C   0  0  0  0  0  0  0  0  0  0  0  0
  1  2  1  0
  2  3  1  0
  2  4  1  0
  4  5  1  0
  5  6  1  0
  6  7  1  0
  7  8  1  0
  7  9  1  0
  9 10  1  0
 10 11  1  0
 11 12  2  0
 12 13  1  0
 13 14  2  0
 14 15  1  0
 15 16  2  0
  9 17  1  0
 17 18  1  0
 18 19  2  0
 18 20  1  0
 20 21  1  0
 21 22  1  0
 22 23  2  0
 23 24  1  0
 24 25  2  0
 25 26  1  0
 26 27  2  0
 20 28  1  0
 28 29  1  0
 29 30  2  0
 29 31  1  0
 31 32  1  0
 32 33  1  0
 33 34  2  0
 34 35  1  0
 35 36  2  0
 36 37  1  0
 37 38  2  0
 31 39  1  0
 39 40  1  0
 40 41  2  0
 40 42  1  0
 42 43  1  0
 43 44  1  0
 44 45  2  0
 45 46  1  0
 46 47  2  0
 47 48  1  0
 48 49  2  0
 42 50  1  0
 50 51  1  0
 51 52  2  0
 51 53  1  0
 53 54  1  0
 54 55  1  0
 55 56  1  0
 56 57  1  0
 57 58  1  0
 58 59  1  0
 59 60  1  0
 60 61  1  0
  5 62  1  0
 62 63  2  0
 62 64  2  0
 62 65  1  0
 65 66  2  0
 66 67  1  0
 67 68  2  0
 68 69  1  0
 68 70  1  0
 70 71  2  0
 16 11  1  0
 27 22  1  0
 38 33  1  0
 49 44  1  0
 61 54  1  0
 71 65  1  0
 61 57  1  0
M  END
>  <Title>  (31) 
idAABEgen4

$$$$

     RDKit          2D

 26 29  0  0  0  0  0  0  0  0999 V2000
    5.7286   -1.0590    0.0000 O   0  0  0  0  0  0  0  0  0  0  0  0
    5.4681   -2.5362    0.0000 C   0  0  0  0  0  0  0  0  0  0  0  0
    4.0586   -3.0492    0.0000 N   0  0  0  0  0  0  0  0  0  0  0  0
    2.9095   -2.0850    0.0000 C   0  0  0  0  0  0  0  0  0  0  0  0
    1.5000   -2.5981    0.0000 C   0  0  0  0  0  0  0  0  0  0  0  0
    0.7500   -1.2990    0.0000 C   0  0  0  0  0  0  0  0  0  0  0  0
    1.5000    0.0000    0.0000 C   0  0  0  0  0  0  0  0  0  0  0  0
    0.7500    1.2990    0.0000 C   0  0  0  0  0  0  0  0  0  0  0  0
   -0.7500    1.2990    0.0000 C   0  0  0  0  0  0  0  0  0  0  0  0
   -1.5000    0.0000    0.0000 C   0  0  0  0  0  0  0  0  0  0  0  0
   -0.7500   -1.2990    0.0000 C   0  0  0  0  0  0  0  0  0  0  0  0
    1.7605   -4.0753    0.0000 C   0  0  0  0  0  0  0  0  0  0  0  0
    0.3509   -3.5623    0.0000 C   0  0  0  0  0  0  0  0  0  0  0  0
    6.6172   -3.5004    0.0000 N   0  0  0  0  0  0  0  0  0  0  0  0
    8.0268   -2.9873    0.0000 C   0  0  0  0  0  0  0  0  0  0  0  0
    7.3692   -1.6392    0.0000 C   0  0  0  0  0  0  0  0  0  0  0  0
    8.2080   -0.3956    0.0000 C   0  0  0  0  0  0  0  0  0  0  0  0
    9.7043   -0.5002    0.0000 C   0  0  0  0  0  0  0  0  0  0  0  0
   10.5431    0.7433    0.0000 C   0  0  0  0  0  0  0  0  0  0  0  0
    9.8856    2.0915    0.0000 C   0  0  0  0  0  0  0  0  0  0  0  0
    8.3892    2.1961    0.0000 C   0  0  0  0  0  0  0  0  0  0  0  0
    7.5504    0.9526    0.0000 C   0  0  0  0  0  0  0  0  0  0  0  0
    9.2988   -2.1925    0.0000 C   0  0  0  0  0  0  0  0  0  0  0  0
   10.4479   -3.1567    0.0000 C   0  0  0  0  0  0  0  0  0  0  0  0
    9.8860   -4.5474    0.0000 C   0  0  0  0  0  0  0  0  0  0  0  0
    8.3896   -4.4428    0.0000 C   0  0  0  0  0  0  0  0  0  0  0  0
  1  2  2  0
  2  3  1  0
  3  4  1  0
  4  5  1  0
  5  6  1  0
  6  7  2  0
  7  8  1  0
  8  9  2  0
  9 10  1  0
 10 11  2  0
  5 12  1  0
 12 13  1  0
  2 14  1  0
 14 15  1  0
 15 16  1  0
 16 17  1  0
 17 18  2  0
 18 19  1  0
 19 20  2  0
 20 21  1  0
 21 22  2  0
 15 23  1  0
 23 24  1  0
 24 25  1  0
 25 26  1  0
 13  5  1  0
 26 15  1  0
 11  6  1  0
 22 17  1  0
M  END
>  <Title>  (32) 
idAABFgen4

$$$$

     RDKit          2D

 54 57  0  0  0  0  0  0  0  0999 V2000
   12.2286    5.1962    0.0000 C   0  0  0  0  0  0  0  0  0  0  0  0
   10.7286    5.1962    0.0000 C   0  0  0  0  0  0  0  0  0  0  0  0
    9.9786    3.8971    0.0000 C   0  0  0  0  0  0  0  0  0  0  0  0
   10.7286    2.5981    0.0000 O   0  0  0  0  0  0  0  0  0  0  0  0
    8.4786    3.8971    0.0000 N   0  0  0  0  0  0  0  0  0  0  0  0
    7.7286    2.5981    0.0000 C   0  0  0  0  0  0  0  0  0  0  0  0
    6.2286    2.5981    0.0000 C   0  0  0  0  0  0  0  0  0  0  0  0
    5.4786    1.2990    0.0000 N   0  0  0  0  0  0  0  0  0  0  0  0
    3.9786    1.2990    0.0000 C   0  0  0  0  0  0  0  0  0  0  0  0
    3.2286    2.5981    0.0000 O   0  0  0  0  0  0  0  0  0  0  0  0
    3.2286   -0.0000    0.0000 N   0  0  0  0  0  0  0  0  0  0  0  0
    1.7286    0.0000    0.0000 C   0  0  0  0  0  0  0  0  0  0  0  0
    1.0777    1.3515    0.0000 C   0  0  0  0  0  0  0  0  0  0  0  0
   -0.3846    1.6852    0.0000 C   0  0  0  0  0  0  0  0  0  0  0  0
   -1.5574    0.7500    0.0000 C   0  0  0  0  0  0  0  0  0  0  0  0
   -1.5574   -0.7500    0.0000 C   0  0  0  0  0  0  0  0  0  0  0  0
   -0.3846   -1.6852    0.0000 C   0  0  0  0  0  0  0  0  0  0  0  0
    1.0777   -1.3515    0.0000 C   0  0  0  0  0  0  0  0  0  0  0  0
    2.0130   -2.5242    0.0000 C   0  0  0  0  0  0  0  0  0  0  0  0
    3.4962   -2.3006    0.0000 O   0  0  0  0  0  0  0  0  0  0  0  0
    1.4650   -3.9205    0.0000 N   0  0  0  0  0  0  0  0  0  0  0  0
    2.4002   -5.0933    0.0000 C   0  0  0  0  0  0  0  0  0  0  0  0
    1.8522   -6.4896    0.0000 C   0  0  0  0  0  0  0  0  0  0  0  0
    2.7874   -7.6623    0.0000 C   0  0  0  0  0  0  0  0  0  0  0  0
    2.2394   -9.0586    0.0000 C   0  0  0  0  0  0  0  0  0  0  0  0
    3.1747  -10.2314    0.0000 C   0  0  0  0  0  0  0  0  0  0  0  0
    4.6579  -10.0078    0.0000 C   0  0  0  0  0  0  0  0  0  0  0  0
    5.2059   -8.6115    0.0000 C   0  0  0  0  0  0  0  0  0  0  0  0
    4.2707   -7.4388    0.0000 C   0  0  0  0  0  0  0  0  0  0  0  0
    3.8835   -4.8697    0.0000 C   0  0  0  0  0  0  0  0  0  0  0  0
    4.4315   -3.4734    0.0000 O   0  0  0  0  0  0  0  0  0  0  0  0
    4.8187   -6.0424    0.0000 N   0  0  0  0  0  0  0  0  0  0  0  0
    6.3019   -5.8189    0.0000 C   0  0  0  0  0  0  0  0  0  0  0  0
    7.2372   -6.9916    0.0000 C   0  0  0  0  0  0  0  0  0  0  0  0
    8.7204   -6.7681    0.0000 C   0  0  0  0  0  0  0  0  0  0  0  0
    9.6556   -7.9408    0.0000 C   0  0  0  0  0  0  0  0  0  0  0  0
   11.1389   -7.7172    0.0000 C   0  0  0  0  0  0  0  0  0  0  0  0
   11.6869   -6.3209    0.0000 C   0  0  0  0  0  0  0  0  0  0  0  0
   10.7517   -5.1482    0.0000 C   0  0  0  0  0  0  0  0  0  0  0  0
    9.2684   -5.3718    0.0000 C   0  0  0  0  0  0  0  0  0  0  0  0
    6.8499   -4.4226    0.0000 C   0  0  0  0  0  0  0  0  0  0  0  0
    5.9147   -3.2498    0.0000 O   0  0  0  0  0  0  0  0  0  0  0  0
    8.3332   -4.1990    0.0000 N   0  0  0  0  0  0  0  0  0  0  0  0
    8.8812   -2.8027    0.0000 C   0  0  0  0  0  0  0  0  0  0  0  0
   10.3644   -2.5791    0.0000 C   0  0  0  0  0  0  0  0  0  0  0  0
   10.9125   -1.1828    0.0000 C   0  0  0  0  0  0  0  0  0  0  0  0
   12.3957   -0.9593    0.0000 C   0  0  0  0  0  0  0  0  0  0  0  0
   12.9437    0.4371    0.0000 C   0  0  0  0  0  0  0  0  0  0  0  0
   12.0085    1.6098    0.0000 C   0  0  0  0  0  0  0  0  0  0  0  0
   10.5252    1.3862    0.0000 C   0  0  0  0  0  0  0  0  0  0  0  0
    9.9772   -0.0101    0.0000 C   0  0  0  0  0  0  0  0  0  0  0  0
    7.9460   -1.6299    0.0000 C   0  0  0  0  0  0  0  0  0  0  0  0
    6.4627   -1.8535    0.0000 O   0  0  0  0  0  0  0  0  0  0  0  0
    8.4940   -0.2336    0.0000 O   0  0  0  0  0  0  0  0  0  0  0  0
  1  2  1  0
  2  3  1  0
  3  4  2  0
  3  5  1  0
  5  6  1  0
  6  7  1  0
  7  8  1  0
  8  9  1  0
  9 10  2  0
  9 11  1  0
 11 12  1  0
 12 13  1  0
 13 14  1  0
 14 15  1  0
 15 16  1  0
 16 17  1  0
 17 18  1  0
 18 19  1  0
 19 20  2  0
 19 21  1  0
 21 22  1  0
 22 23  1  0
 23 24  1  0
 24 25  2  0
 25 26  1  0
 26 27  2  0
 27 28  1  0
 28 29  2  0
 22 30  1  0
 30 31  2  0
 30 32  1  0
 32 33  1  0
 33 34  1  0
 34 35  1  0
 35 36  2  0
 36 37  1  0
 37 38  2  0
 38 39  1  0
 39 40  2  0
 33 41  1  0
 41 42  2  0
 41 43  1  0
 43 44  1  0
 44 45  1  0
 45 46  1  0
 46 47  2  0
 47 48  1  0
 48 49  2  0
 49 50  1  0
 50 51  2  0
 44 52  1  0
 52 53  2  0
 52 54  1  0
 18 12  1  0
 29 24  1  0
 40 35  1  0
 51 46  1  0
M  END
>  <Title>  (33) 
idAABGgen4

$$$$

     RDKit          2D

 51 54  0  0  0  0  0  0  0  0999 V2000
    6.0000   -5.1962    0.0000 C   0  0  0  0  0  0  0  0  0  0  0  0
    4.5000   -5.1962    0.0000 C   0  0  0  0  0  0  0  0  0  0  0  0
    3.7500   -6.4952    0.0000 C   0  0  0  0  0  0  0  0  0  0  0  0
    3.7500   -3.8971    0.0000 C   0  0  0  0  0  0  0  0  0  0  0  0
    2.2500   -3.8971    0.0000 N   0  0  0  0  0  0  0  0  0  0  0  0
    1.5000   -2.5981    0.0000 S   0  0  0  0  0  0  0  0  0  0  0  0
    0.2010   -3.3481    0.0000 O   0  0  0  0  0  0  0  0  0  0  0  0
    2.7990   -1.8481    0.0000 O   0  0  0  0  0  0  0  0  0  0  0  0
    0.7500   -1.2990    0.0000 C   0  0  0  0  0  0  0  0  0  0  0  0
    1.5000    0.0000    0.0000 C   0  0  0  0  0  0  0  0  0  0  0  0
    0.7500    1.2990    0.0000 C   0  0  0  0  0  0  0  0  0  0  0  0
   -0.7500    1.2990    0.0000 C   0  0  0  0  0  0  0  0  0  0  0  0
   -1.5000    0.0000    0.0000 C   0  0  0  0  0  0  0  0  0  0  0  0
   -0.7500   -1.2990    0.0000 C   0  0  0  0  0  0  0  0  0  0  0  0
    4.5000   -2.5981    0.0000 C   0  0  0  0  0  0  0  0  0  0  0  0
    3.7500   -1.2990    0.0000 O   0  0  0  0  0  0  0  0  0  0  0  0
    6.0000   -2.5981    0.0000 N   0  0  0  0  0  0  0  0  0  0  0  0
    6.7500   -1.2990    0.0000 C   0  0  0  0  0  0  0  0  0  0  0  0
    8.2500   -1.2990    0.0000 C   0  0  0  0  0  0  0  0  0  0  0  0
    9.0000   -0.0000    0.0000 C   0  0  0  0  0  0  0  0  0  0  0  0
   10.5000   -0.0000    0.0000 C   0  0  0  0  0  0  0  0  0  0  0  0
   11.2500    1.2990    0.0000 C   0  0  0  0  0  0  0  0  0  0  0  0
   10.5000    2.5981    0.0000 C   0  0  0  0  0  0  0  0  0  0  0  0
    9.0000    2.5981    0.0000 C   0  0  0  0  0  0  0  0  0  0  0  0
    8.2500    1.2990    0.0000 C   0  0  0  0  0  0  0  0  0  0  0  0
    6.0000   -0.0000    0.0000 C   0  0  0  0  0  0  0  0  0  0  0  0
    4.5000   -0.0000    0.0000 O   0  0  0  0  0  0  0  0  0  0  0  0
    6.7500    1.2990    0.0000 C   0  0  0  0  0  0  0  0  0  0  0  0
    6.0000    2.5981    0.0000 N   0  0  0  0  0  0  0  0  0  0  0  0
    6.7500    3.8971    0.0000 C   0  0  0  0  0  0  0  0  0  0  0  0
    8.2500    3.8971    0.0000 C   0  0  0  0  0  0  0  0  0  0  0  0
    9.0000    5.1962    0.0000 C   0  0  0  0  0  0  0  0  0  0  0  0
    8.2500    6.4952    0.0000 C   0  0  0  0  0  0  0  0  0  0  0  0
    9.0000    7.7942    0.0000 C   0  0  0  0  0  0  0  0  0  0  0  0
   10.5000    7.7942    0.0000 C   0  0  0  0  0  0  0  0  0  0  0  0
   11.2500    6.4952    0.0000 C   0  0  0  0  0  0  0  0  0  0  0  0
   10.5000    5.1962    0.0000 C   0  0  0  0  0  0  0  0  0  0  0  0
    6.0000    5.1962    0.0000 C   0  0  0  0  0  0  0  0  0  0  0  0
    4.5000    5.1962    0.0000 O   0  0  0  0  0  0  0  0  0  0  0  0
    6.7500    6.4952    0.0000 N   0  0  0  0  0  0  0  0  0  0  0  0
    6.0000    7.7942    0.0000 C   0  0  0  0  0  0  0  0  0  0  0  0
    6.7500    9.0933    0.0000 C   0  0  0  0  0  0  0  0  0  0  0  0
    6.0000   10.3923    0.0000 C   0  0  0  0  0  0  0  0  0  0  0  0
    4.5000   10.3923    0.0000 C   0  0  0  0  0  0  0  0  0  0  0  0
    3.7500   11.6913    0.0000 C   0  0  0  0  0  0  0  0  0  0  0  0
    4.5000   12.9904    0.0000 C   0  0  0  0  0  0  0  0  0  0  0  0
    6.0000   12.9904    0.0000 C   0  0  0  0  0  0  0  0  0  0  0  0
    6.7500   11.6913    0.0000 C   0  0  0  0  0  0  0  0  0  0  0  0
    4.5000    7.7942    0.0000 C   0  0  0  0  0  0  0  0  0  0  0  0
    3.7500    6.4952    0.0000 O   0  0  0  0  0  0  0  0  0  0  0  0
    3.7500    9.0933    0.0000 O   0  0  0  0  0  0  0  0  0  0  0  0
  1  2  1  0
  2  3  1  0
  2  4  1  0
  4  5  1  0
  5  6  1  0
  6  7  2  0
  6  8  2  0
  6  9  1  0
  9 10  2  0
 10 11  1  0
 11 12  2  0
 12 13  1  0
 13 14  2  0
  4 15  1  0
 15 16  2  0
 15 17  1  0
 17 18  1  0
 18 19  1  0
 19 20  1  0
 20 21  2  0
 21 22  1  0
 22 23  2  0
 23 24  1  0
 24 25  2  0
 18 26  1  0
 26 27  1  0
 26 28  1  0
 28 29  1  0
 29 30  1  0
 30 31  1  0
 31 32  1  0
 32 33  2  0
 33 34  1  0
 34 35  2  0
 35 36  1  0
 36 37  2  0
 30 38  1  0
 38 39  2  0
 38 40  1  0
 40 41  1  0
 41 42  1  0
 42 43  1  0
 43 44  2  0
 44 45  1  0
 45 46  2  0
 46 47  1  0
 47 48  2  0
 41 49  1  0
 49 50  2  0
 49 51  1  0
 14  9  1  0
 25 20  1  0
 37 32  1  0
 48 43  1  0
M  END
>  <Title>  (34) 
idAABHgen4

$$$$

     RDKit          2D

 59 64  0  0  0  0  0  0  0  0999 V2000
  -16.9140    4.5616    0.0000 C   0  0  0  0  0  0  0  0  0  0  0  0
  -15.4140    4.5616    0.0000 C   0  0  0  0  0  0  0  0  0  0  0  0
  -14.9867    3.5550    0.0000 C   0  0  0  0  0  0  0  0  0  0  0  0
  -14.6640    5.8606    0.0000 C   0  0  0  0  0  0  0  0  0  0  0  0
  -13.1640    5.8606    0.0000 C   0  0  0  0  0  0  0  0  0  0  0  0
  -12.4140    4.5616    0.0000 N   0  0  0  0  0  0  0  0  0  0  0  0
  -13.1640    3.2626    0.0000 S   0  0  0  0  0  0  0  0  0  0  0  0
  -14.1705    3.6898    0.0000 O   0  0  0  0  0  0  0  0  0  0  0  0
  -11.8649    2.5126    0.0000 O   0  0  0  0  0  0  0  0  0  0  0  0
  -13.9140    1.9635    0.0000 C   0  0  0  0  0  0  0  0  0  0  0  0
  -15.4140    1.9635    0.0000 C   0  0  0  0  0  0  0  0  0  0  0  0
  -16.1640    0.6645    0.0000 C   0  0  0  0  0  0  0  0  0  0  0  0
  -15.4140   -0.6346    0.0000 C   0  0  0  0  0  0  0  0  0  0  0  0
  -13.9140   -0.6346    0.0000 C   0  0  0  0  0  0  0  0  0  0  0  0
  -13.1640    0.6645    0.0000 C   0  0  0  0  0  0  0  0  0  0  0  0
  -12.4140    7.1597    0.0000 C   0  0  0  0  0  0  0  0  0  0  0  0
  -12.9678    7.7331    0.0000 O   0  0  0  0  0  0  0  0  0  0  0  0
  -10.9140    7.1597    0.0000 N   0  0  0  0  0  0  0  0  0  0  0  0
  -10.1640    8.4587    0.0000 C   0  0  0  0  0  0  0  0  0  0  0  0
  -10.9140    9.7578    0.0000 C   0  0  0  0  0  0  0  0  0  0  0  0
  -12.4140    9.7578    0.0000 C   0  0  0  0  0  0  0  0  0  0  0  0
  -13.1640   11.0568    0.0000 C   0  0  0  0  0  0  0  0  0  0  0  0
  -14.6640   11.0568    0.0000 C   0  0  0  0  0  0  0  0  0  0  0  0
  -15.4140    9.7578    0.0000 C   0  0  0  0  0  0  0  0  0  0  0  0
  -14.6640    8.4587    0.0000 C   0  0  0  0  0  0  0  0  0  0  0  0
  -13.1640    8.4587    0.0000 C   0  0  0  0  0  0  0  0  0  0  0  0
   -8.6640    8.4587    0.0000 C   0  0  0  0  0  0  0  0  0  0  0  0
   -8.2506    9.9006    0.0000 O   0  0  0  0  0  0  0  0  0  0  0  0
   -7.9140    7.1597    0.0000 C   0  0  0  0  0  0  0  0  0  0  0  0
   -6.4140    7.1597    0.0000 N   0  0  0  0  0  0  0  0  0  0  0  0
   -5.6640    8.4587    0.0000 C   0  0  0  0  0  0  0  0  0  0  0  0
   -6.4140    9.7578    0.0000 C   0  0  0  0  0  0  0  0  0  0  0  0
   -5.6640   11.0568    0.0000 C   0  0  0  0  0  0  0  0  0  0  0  0
   -6.4140   12.3558    0.0000 C   0  0  0  0  0  0  0  0  0  0  0  0
   -7.9140   12.3558    0.0000 C   0  0  0  0  0  0  0  0  0  0  0  0
   -8.6640   11.0568    0.0000 C   0  0  0  0  0  0  0  0  0  0  0  0
   -7.9140    9.7578    0.0000 C   0  0  0  0  0  0  0  0  0  0  0  0
   -5.6640    5.8606    0.0000 C   0  0  0  0  0  0  0  0  0  0  0  0
   -4.1640    5.8606    0.0000 O   0  0  0  0  0  0  0  0  0  0  0  0
   -6.4140    4.5616    0.0000 C   0  0  0  0  0  0  0  0  0  0  0  0
   -7.9140    4.5616    0.0000 C   0  0  0  0  0  0  0  0  0  0  0  0
   -8.6640    5.8606    0.0000 C   0  0  0  0  0  0  0  0  0  0  0  0
   -7.9140    7.1597    0.0000 C   0  0  0  0  0  0  0  0  0  0  0  0
   -8.6640    8.4587    0.0000 C   0  0  0  0  0  0  0  0  0  0  0  0
  -10.1640    8.4587    0.0000 C   0  0  0  0  0  0  0  0  0  0  0  0
  -10.9140    7.1597    0.0000 C   0  0  0  0  0  0  0  0  0  0  0  0
  -10.1640    5.8606    0.0000 C   0  0  0  0  0  0  0  0  0  0  0  0
   -5.6640    3.2626    0.0000 N   0  0  0  0  0  0  0  0  0  0  0  0
   -4.1640    3.2626    0.0000 C   0  0  0  0  0  0  0  0  0  0  0  0
   -3.4140    4.5616    0.0000 O   0  0  0  0  0  0  0  0  0  0  0  0
   -3.4140    1.9635    0.0000 O   0  0  0  0  0  0  0  0  0  0  0  0
   -1.9140    1.9635    0.0000 C   0  0  0  0  0  0  0  0  0  0  0  0
   -1.0323    3.1771    0.0000 C   0  0  0  0  0  0  0  0  0  0  0  0
    0.3943    2.7135    0.0000 O   0  0  0  0  0  0  0  0  0  0  0  0
    0.3943    1.2135    0.0000 C   0  0  0  0  0  0  0  0  0  0  0  0
    1.2760    0.0000    0.0000 O   0  0  0  0  0  0  0  0  0  0  0  0
    0.3943   -1.2135    0.0000 C   0  0  0  0  0  0  0  0  0  0  0  0
   -1.0323   -0.7500    0.0000 C   0  0  0  0  0  0  0  0  0  0  0  0
   -1.0323    0.7500    0.0000 C   0  0  0  0  0  0  0  0  0  0  0  0
  1  2  1  0
  2  3  1  0
  2  4  1  0
  4  5  1  0
  5  6  1  0
  6  7  1  0
  7  8  2  0
  7  9  2  0
  7 10  1  0
 10 11  2  0
 11 12  1  0
 12 13  2  0
 13 14  1  0
 14 15  2  0
  5 16  1  0
 16 17  2  0
 16 18  1  0
 18 19  1  0
 19 20  1  0
 20 21  1  0
 21 22  2  0
 22 23  1  0
 23 24  2  0
 24 25  1  0
 25 26  2  0
 19 27  1  0
 27 28  1  0
 27 29  1  0
 29 30  1  0
 30 31  1  0
 31 32  1  0
 32 33  2  0
 33 34  1  0
 34 35  2  0
 35 36  1  0
 36 37  2  0
 30 38  1  0
 38 39  2  0
 38 40  1  0
 40 41  1  0
 41 42  1  0
 42 43  2  0
 43 44  1  0
 44 45  2  0
 45 46  1  0
 46 47  2  0
 40 48  1  0
 48 49  1  0
 49 50  2  0
 49 51  1  0
 51 52  1  0
 52 53  1  0
 53 54  1  0
 54 55  1  0
 55 56  1  0
 56 57  1  0
 57 58  1  0
 58 59  1  0
 15 10  1  0
 26 21  1  0
 37 32  1  0
 47 42  1  0
 59 52  1  0
 59 55  1  0
M  END
>  <Title>  (35) 
idAABIgen4

$$$$

     RDKit          2D

 50 53  0  0  0  0  0  0  0  0999 V2000
    6.0000   -5.1962    0.0000 C   0  0  0  0  0  0  0  0  0  0  0  0
    4.5000   -5.1962    0.0000 C   0  0  0  0  0  0  0  0  0  0  0  0
    3.7500   -6.4952    0.0000 C   0  0  0  0  0  0  0  0  0  0  0  0
    3.7500   -3.8971    0.0000 C   0  0  0  0  0  0  0  0  0  0  0  0
    2.2500   -3.8971    0.0000 N   0  0  0  0  0  0  0  0  0  0  0  0
    1.5000   -2.5981    0.0000 S   0  0  0  0  0  0  0  0  0  0  0  0
    0.2010   -3.3481    0.0000 O   0  0  0  0  0  0  0  0  0  0  0  0
    2.7990   -1.8481    0.0000 O   0  0  0  0  0  0  0  0  0  0  0  0
    0.7500   -1.2990    0.0000 C   0  0  0  0  0  0  0  0  0  0  0  0
    1.5000    0.0000    0.0000 C   0  0  0  0  0  0  0  0  0  0  0  0
    0.7500    1.2990    0.0000 C   0  0  0  0  0  0  0  0  0  0  0  0
   -0.7500    1.2990    0.0000 C   0  0  0  0  0  0  0  0  0  0  0  0
   -1.5000    0.0000    0.0000 C   0  0  0  0  0  0  0  0  0  0  0  0
   -0.7500   -1.2990    0.0000 C   0  0  0  0  0  0  0  0  0  0  0  0
    4.5000   -2.5981    0.0000 C   0  0  0  0  0  0  0  0  0  0  0  0
    3.7500   -1.2990    0.0000 O   0  0  0  0  0  0  0  0  0  0  0  0
    6.0000   -2.5981    0.0000 N   0  0  0  0  0  0  0  0  0  0  0  0
    6.7500   -1.2990    0.0000 C   0  0  0  0  0  0  0  0  0  0  0  0
    8.2500   -1.2990    0.0000 C   0  0  0  0  0  0  0  0  0  0  0  0
    9.0000   -0.0000    0.0000 C   0  0  0  0  0  0  0  0  0  0  0  0
   10.5000   -0.0000    0.0000 C   0  0  0  0  0  0  0  0  0  0  0  0
   11.2500    1.2990    0.0000 C   0  0  0  0  0  0  0  0  0  0  0  0
   10.5000    2.5981    0.0000 C   0  0  0  0  0  0  0  0  0  0  0  0
    9.0000    2.5981    0.0000 C   0  0  0  0  0  0  0  0  0  0  0  0
    8.2500    1.2990    0.0000 C   0  0  0  0  0  0  0  0  0  0  0  0
    6.0000   -0.0000    0.0000 C   0  0  0  0  0  0  0  0  0  0  0  0
    4.5000   -0.0000    0.0000 O   0  0  0  0  0  0  0  0  0  0  0  0
    6.7500    1.2990    0.0000 N   0  0  0  0  0  0  0  0  0  0  0  0
    6.0000    2.5981    0.0000 C   0  0  0  0  0  0  0  0  0  0  0  0
    6.7500    3.8971    0.0000 C   0  0  0  0  0  0  0  0  0  0  0  0
    6.0000    5.1962    0.0000 C   0  0  0  0  0  0  0  0  0  0  0  0
    6.7500    6.4952    0.0000 C   0  0  0  0  0  0  0  0  0  0  0  0
    6.0000    7.7942    0.0000 C   0  0  0  0  0  0  0  0  0  0  0  0
    4.5000    7.7942    0.0000 C   0  0  0  0  0  0  0  0  0  0  0  0
    3.7500    6.4952    0.0000 C   0  0  0  0  0  0  0  0  0  0  0  0
    4.5000    5.1962    0.0000 C   0  0  0  0  0  0  0  0  0  0  0  0
    4.5000    2.5981    0.0000 C   0  0  0  0  0  0  0  0  0  0  0  0
    3.7500    1.2990    0.0000 O   0  0  0  0  0  0  0  0  0  0  0  0
    3.7500    3.8971    0.0000 N   0  0  0  0  0  0  0  0  0  0  0  0
    2.2500    3.8971    0.0000 C   0  0  0  0  0  0  0  0  0  0  0  0
    1.5000    5.1962    0.0000 C   0  0  0  0  0  0  0  0  0  0  0  0
    0.0000    5.1962    0.0000 C   0  0  0  0  0  0  0  0  0  0  0  0
   -0.7500    6.4952    0.0000 C   0  0  0  0  0  0  0  0  0  0  0  0
   -2.2500    6.4952    0.0000 C   0  0  0  0  0  0  0  0  0  0  0  0
   -3.0000    5.1962    0.0000 C   0  0  0  0  0  0  0  0  0  0  0  0
   -2.2500    3.8971    0.0000 C   0  0  0  0  0  0  0  0  0  0  0  0
   -0.7500    3.8971    0.0000 C   0  0  0  0  0  0  0  0  0  0  0  0
    1.5000    2.5981    0.0000 C   0  0  0  0  0  0  0  0  0  0  0  0
    2.2500    1.2990    0.0000 O   0  0  0  0  0  0  0  0  0  0  0  0
    0.0000    2.5981    0.0000 O   0  0  0  0  0  0  0  0  0  0  0  0
  1  2  1  0
  2  3  1  0
  2  4  1  0
  4  5  1  0
  5  6  1  0
  6  7  2  0
  6  8  2  0
  6  9  1  0
  9 10  2  0
 10 11  1  0
 11 12  2  0
 12 13  1  0
 13 14  2  0
  4 15  1  0
 15 16  2  0
 15 17  1  0
 17 18  1  0
 18 19  1  0
 19 20  1  0
 20 21  2  0
 21 22  1  0
 22 23  2  0
 23 24  1  0
 24 25  2  0
 18 26  1  0
 26 27  2  0
 26 28  1  0
 28 29  1  0
 29 30  1  0
 30 31  1  0
 31 32  2  0
 32 33  1  0
 33 34  2  0
 34 35  1  0
 35 36  2  0
 29 37  1  0
 37 38  2  0
 37 39  1  0
 39 40  1  0
 40 41  1  0
 41 42  1  0
 42 43  2  0
 43 44  1  0
 44 45  2  0
 45 46  1  0
 46 47  2  0
 40 48  1  0
 48 49  2  0
 48 50  1  0
 14  9  1  0
 25 20  1  0
 36 31  1  0
 47 42  1  0
M  END
>  <Title>  (36) 
idAABJgen4

$$$$

     RDKit          2D

 76 82  0  0  0  0  0  0  0  0999 V2000
    0.7500  -11.6913    0.0000 C   0  0  0  0  0  0  0  0  0  0  0  0
   -0.7500  -11.6913    0.0000 C   0  0  0  0  0  0  0  0  0  0  0  0
   -1.1634  -13.1333    0.0000 C   0  0  0  0  0  0  0  0  0  0  0  0
   -1.5000  -10.3923    0.0000 C   0  0  0  0  0  0  0  0  0  0  0  0
   -3.0000  -10.3923    0.0000 N   0  0  0  0  0  0  0  0  0  0  0  0
   -3.7500   -9.0933    0.0000 C   0  0  0  0  0  0  0  0  0  0  0  0
   -5.2500   -9.0933    0.0000 C   0  0  0  0  0  0  0  0  0  0  0  0
   -6.0000  -10.3923    0.0000 O   0  0  0  0  0  0  0  0  0  0  0  0
   -6.0000   -7.7942    0.0000 C   0  0  0  0  0  0  0  0  0  0  0  0
   -7.5000   -7.7942    0.0000 C   0  0  0  0  0  0  0  0  0  0  0  0
   -8.2500   -6.4952    0.0000 C   0  0  0  0  0  0  0  0  0  0  0  0
   -9.7500   -6.4952    0.0000 C   0  0  0  0  0  0  0  0  0  0  0  0
  -10.5000   -5.1962    0.0000 C   0  0  0  0  0  0  0  0  0  0  0  0
   -9.7500   -3.8971    0.0000 C   0  0  0  0  0  0  0  0  0  0  0  0
   -8.2500   -3.8971    0.0000 C   0  0  0  0  0  0  0  0  0  0  0  0
   -7.5000   -5.1962    0.0000 C   0  0  0  0  0  0  0  0  0  0  0  0
   -5.2500   -6.4952    0.0000 N   0  0  0  0  0  0  0  0  0  0  0  0
   -3.7500   -6.4952    0.0000 C   0  0  0  0  0  0  0  0  0  0  0  0
   -3.0000   -7.7942    0.0000 O   0  0  0  0  0  0  0  0  0  0  0  0
   -3.0000   -5.1962    0.0000 C   0  0  0  0  0  0  0  0  0  0  0  0
   -1.5000   -5.1962    0.0000 C   0  0  0  0  0  0  0  0  0  0  0  0
   -0.7500   -3.8971    0.0000 C   0  0  0  0  0  0  0  0  0  0  0  0
   -1.5000   -2.5981    0.0000 C   0  0  0  0  0  0  0  0  0  0  0  0
   -0.7500   -1.2990    0.0000 C   0  0  0  0  0  0  0  0  0  0  0  0
    0.7500   -1.2990    0.0000 C   0  0  0  0  0  0  0  0  0  0  0  0
    1.5000   -2.5981    0.0000 C   0  0  0  0  0  0  0  0  0  0  0  0
    0.7500   -3.8971    0.0000 C   0  0  0  0  0  0  0  0  0  0  0  0
   -3.7500   -3.8971    0.0000 N   0  0  0  0  0  0  0  0  0  0  0  0
   -5.2500   -3.8971    0.0000 C   0  0  0  0  0  0  0  0  0  0  0  0
   -6.0000   -5.1962    0.0000 O   0  0  0  0  0  0  0  0  0  0  0  0
   -6.0000   -2.5981    0.0000 C   0  0  0  0  0  0  0  0  0  0  0  0
   -7.5000   -2.5981    0.0000 C   0  0  0  0  0  0  0  0  0  0  0  0
   -8.2500   -1.2990    0.0000 C   0  0  0  0  0  0  0  0  0  0  0  0
   -9.7418   -1.1422    0.0000 C   0  0  0  0  0  0  0  0  0  0  0  0
  -10.0537    0.3250    0.0000 C   0  0  0  0  0  0  0  0  0  0  0  0
   -8.7546    1.0750    0.0000 C   0  0  0  0  0  0  0  0  0  0  0  0
   -7.6399    0.0713    0.0000 C   0  0  0  0  0  0  0  0  0  0  0  0
   -5.2500   -1.2990    0.0000 N   0  0  0  0  0  0  0  0  0  0  0  0
   -3.7500   -1.2990    0.0000 C   0  0  0  0  0  0  0  0  0  0  0  0
   -3.0000   -2.5981    0.0000 O   0  0  0  0  0  0  0  0  0  0  0  0
   -3.0000    0.0000    0.0000 C   0  0  0  0  0  0  0  0  0  0  0  0
   -1.5000    0.0000    0.0000 C   0  0  0  0  0  0  0  0  0  0  0  0
   -0.7500    1.2990    0.0000 C   0  0  0  0  0  0  0  0  0  0  0  0
   -1.5000    2.5981    0.0000 C   0  0  0  0  0  0  0  0  0  0  0  0
   -0.7500    3.8971    0.0000 C   0  0  0  0  0  0  0  0  0  0  0  0
    0.7500    3.8971    0.0000 C   0  0  0  0  0  0  0  0  0  0  0  0
    1.5000    2.5981    0.0000 C   0  0  0  0  0  0  0  0  0  0  0  0
    0.7500    1.2990    0.0000 C   0  0  0  0  0  0  0  0  0  0  0  0
   -3.7500    1.2990    0.0000 N   0  0  0  0  0  0  0  0  0  0  0  0
   -5.2500    1.2990    0.0000 C   0  0  0  0  0  0  0  0  0  0  0  0
   -6.0000   -0.0000    0.0000 O   0  0  0  0  0  0  0  0  0  0  0  0
   -6.0000    2.5981    0.0000 C   0  0  0  0  0  0  0  0  0  0  0  0
   -7.5000    2.5981    0.0000 C   0  0  0  0  0  0  0  0  0  0  0  0
   -8.2500    3.8971    0.0000 C   0  0  0  0  0  0  0  0  0  0  0  0
   -9.7500    3.8971    0.0000 C   0  0  0  0  0  0  0  0  0  0  0  0
  -10.5000    5.1962    0.0000 C   0  0  0  0  0  0  0  0  0  0  0  0
   -9.7500    6.4952    0.0000 C   0  0  0  0  0  0  0  0  0  0  0  0
   -8.2500    6.4952    0.0000 C   0  0  0  0  0  0  0  0  0  0  0  0
   -7.5000    5.1962    0.0000 C   0  0  0  0  0  0  0  0  0  0  0  0
   -5.2500    3.8971    0.0000 N   0  0  0  0  0  0  0  0  0  0  0  0
   -6.0000    5.1962    0.0000 C   0  0  0  0  0  0  0  0  0  0  0  0
   -6.7735    5.3890    0.0000 O   0  0  0  0  0  0  0  0  0  0  0  0
   -5.2500    6.4952    0.0000 C   0  0  0  0  0  0  0  0  0  0  0  0
   -6.0000    7.7942    0.0000 C   0  0  0  0  0  0  0  0  0  0  0  0
   -7.4918    7.9510    0.0000 C   0  0  0  0  0  0  0  0  0  0  0  0
   -7.8037    9.4182    0.0000 C   0  0  0  0  0  0  0  0  0  0  0  0
   -6.5046   10.1682    0.0000 C   0  0  0  0  0  0  0  0  0  0  0  0
   -5.3899    9.1645    0.0000 C   0  0  0  0  0  0  0  0  0  0  0  0
   -3.7500  -11.6913    0.0000 C   0  0  0  0  0  0  0  0  0  0  0  0
   -5.2500  -11.6913    0.0000 O   0  0  0  0  0  0  0  0  0  0  0  0
   -3.0000  -12.9904    0.0000 C   0  0  0  0  0  0  0  0  0  0  0  0
   -1.5000  -12.9904    0.0000 C   0  0  0  0  0  0  0  0  0  0  0  0
   -0.7500  -14.2894    0.0000 C   0  0  0  0  0  0  0  0  0  0  0  0
   -1.5000  -15.5885    0.0000 C   0  0  0  0  0  0  0  0  0  0  0  0
   -3.0000  -15.5885    0.0000 C   0  0  0  0  0  0  0  0  0  0  0  0
   -3.7500  -14.2894    0.0000 C   0  0  0  0  0  0  0  0  0  0  0  0
  1  2  1  0
  2  3  1  0
  2  4  1  0
  4  5  1  0
  5  6  1  0
  6  7  1  0
  7  8  1  0
  7  9  1  0
  9 10  1  0
 10 11  1  0
 11 12  2  0
 12 13  1  0
 13 14  2  0
 14 15  1  0
 15 16  2  0
  9 17  1  0
 17 18  1  0
 18 19  2  0
 18 20  1  0
 20 21  1  0
 21 22  1  0
 22 23  2  0
 23 24  1  0
 24 25  2  0
 25 26  1  0
 26 27  2  0
 20 28  1  0
 28 29  1  0
 29 30  2  0
 29 31  1  0
 31 32  1  0
 32 33  1  0
 33 34  1  0
 34 35  1  0
 35 36  1  0
 36 37  1  0
 31 38  1  0
 38 39  1  0
 39 40  2  0
 39 41  1  0
 41 42  1  0
 42 43  1  0
 43 44  2  0
 44 45  1  0
 45 46  2  0
 46 47  1  0
 47 48  2  0
 41 49  1  0
 49 50  1  0
 50 51  2  0
 50 52  1  0
 52 53  1  0
 53 54  1  0
 54 55  2  0
 55 56  1  0
 56 57  2  0
 57 58  1  0
 58 59  2  0
 52 60  1  0
 60 61  1  0
 61 62  2  0
 61 63  1  0
 63 64  1  0
 64 65  1  0
 65 66  1  0
 66 67  1  0
 67 68  1  0
  5 69  1  0
 69 70  2  0
 69 71  1  0
 71 72  2  0
 72 73  1  0
 73 74  2  0
 74 75  1  0
 75 76  2  0
 16 11  1  0
 27 22  1  0
 37 33  1  0
 48 43  1  0
 59 54  1  0
 68 64  1  0
 76 71  1  0
M  END
>  <Title>  (37) 
idAABKgen4

$$$$

     RDKit          2D

 47 50  0  0  0  0  0  0  0  0999 V2000
   -1.3198    4.1638    0.0000 C   0  0  0  0  0  0  0  0  0  0  0  0
   -0.6406    5.5013    0.0000 C   0  0  0  0  0  0  0  0  0  0  0  0
   -2.0756    5.9379    0.0000 C   0  0  0  0  0  0  0  0  0  0  0  0
   -0.4598    6.9903    0.0000 C   0  0  0  0  0  0  0  0  0  0  0  0
   -1.6590    7.8914    0.0000 O   0  0  0  0  0  0  0  0  0  0  0  0
    0.9202    7.5783    0.0000 C   0  0  0  0  0  0  0  0  0  0  0  0
    2.1193    6.6772    0.0000 C   0  0  0  0  0  0  0  0  0  0  0  0
    1.9385    5.1881    0.0000 C   0  0  0  0  0  0  0  0  0  0  0  0
    0.5586    4.6001    0.0000 C   0  0  0  0  0  0  0  0  0  0  0  0
    0.3778    3.1111    0.0000 C   0  0  0  0  0  0  0  0  0  0  0  0
   -1.1113    2.9303    0.0000 C   0  0  0  0  0  0  0  0  0  0  0  0
   -2.3458    2.0782    0.0000 C   0  0  0  0  0  0  0  0  0  0  0  0
   -3.0429    0.7500    0.0000 C   0  0  0  0  0  0  0  0  0  0  0  0
   -3.0429   -0.7500    0.0000 C   0  0  0  0  0  0  0  0  0  0  0  0
   -2.3458   -2.0782    0.0000 C   0  0  0  0  0  0  0  0  0  0  0  0
   -1.1113   -2.9303    0.0000 C   0  0  0  0  0  0  0  0  0  0  0  0
    0.3778   -3.1111    0.0000 C   0  0  0  0  0  0  0  0  0  0  0  0
    1.7803   -2.5792    0.0000 C   0  0  0  0  0  0  0  0  0  0  0  0
    2.7750   -1.4564    0.0000 C   0  0  0  0  0  0  0  0  0  0  0  0
    3.1339   -0.0000    0.0000 C   0  0  0  0  0  0  0  0  0  0  0  0
    2.7750    1.4564    0.0000 C   0  0  0  0  0  0  0  0  0  0  0  0
    1.7803    2.5792    0.0000 C   0  0  0  0  0  0  0  0  0  0  0  0
    2.6324    3.8137    0.0000 C   0  0  0  0  0  0  0  0  0  0  0  0
    4.1275    3.6930    0.0000 O   0  0  0  0  0  0  0  0  0  0  0  0
    1.9893    5.1688    0.0000 N   0  0  0  0  0  0  0  0  0  0  0  0
    2.8414    6.4033    0.0000 C   0  0  0  0  0  0  0  0  0  0  0  0
    2.1984    7.7585    0.0000 C   0  0  0  0  0  0  0  0  0  0  0  0
    3.0505    8.9930    0.0000 C   0  0  0  0  0  0  0  0  0  0  0  0
    4.5456    8.8723    0.0000 C   0  0  0  0  0  0  0  0  0  0  0  0
    5.3977   10.1067    0.0000 C   0  0  0  0  0  0  0  0  0  0  0  0
    4.7547   11.4619    0.0000 C   0  0  0  0  0  0  0  0  0  0  0  0
    3.2596   11.5826    0.0000 C   0  0  0  0  0  0  0  0  0  0  0  0
    2.4075   10.3481    0.0000 C   0  0  0  0  0  0  0  0  0  0  0  0
    4.3366    6.2826    0.0000 C   0  0  0  0  0  0  0  0  0  0  0  0
    4.9796    4.9274    0.0000 O   0  0  0  0  0  0  0  0  0  0  0  0
    5.1887    7.5171    0.0000 N   0  0  0  0  0  0  0  0  0  0  0  0
    6.6838    7.3964    0.0000 C   0  0  0  0  0  0  0  0  0  0  0  0
    7.5359    8.6309    0.0000 C   0  0  0  0  0  0  0  0  0  0  0  0
    9.0310    8.5102    0.0000 C   0  0  0  0  0  0  0  0  0  0  0  0
    9.6741    7.1550    0.0000 C   0  0  0  0  0  0  0  0  0  0  0  0
   11.1692    7.0343    0.0000 C   0  0  0  0  0  0  0  0  0  0  0  0
   12.0213    8.2688    0.0000 C   0  0  0  0  0  0  0  0  0  0  0  0
   11.3783    9.6239    0.0000 C   0  0  0  0  0  0  0  0  0  0  0  0
    9.8831    9.7446    0.0000 C   0  0  0  0  0  0  0  0  0  0  0  0
    7.3268    6.0412    0.0000 C   0  0  0  0  0  0  0  0  0  0  0  0
    6.4747    4.8067    0.0000 O   0  0  0  0  0  0  0  0  0  0  0  0
    8.8220    5.9205    0.0000 O   0  0  0  0  0  0  0  0  0  0  0  0
  1  2  1  0
  2  3  1  0
  2  4  1  0
  4  5  1  0
  4  6  1  0
  6  7  1  0
  7  8  1  0
  8  9  1  0
  9 10  1  0
 10 11  1  0
 11 12  1  0
 12 13  1  0
 13 14  1  0
 14 15  1  0
 15 16  1  0
 16 17  1  0
 17 18  1  0
 18 19  1  0
 19 20  1  0
 20 21  1  0
 21 22  1  0
 22 23  1  0
 23 24  2  0
 23 25  1  0
 25 26  1  0
 26 27  1  0
 27 28  1  0
 28 29  2  0
 29 30  1  0
 30 31  2  0
 31 32  1  0
 32 33  2  0
 26 34  1  0
 34 35  2  0
 34 36  1  0
 36 37  1  0
 37 38  1  0
 38 39  1  0
 39 40  2  0
 40 41  1  0
 41 42  2  0
 42 43  1  0
 43 44  2  0
 37 45  1  0
 45 46  2  0
 45 47  1  0
  9  2  1  0
 22 10  1  0
 33 28  1  0
 44 39  1  0
M  END
>  <Title>  (38) 
idAABLgen4

$$$$

     RDKit          2D

 56 61  0  0  0  0  0  0  0  0999 V2000
  -19.2451    6.6177    0.0000 C   0  0  0  0  0  0  0  0  0  0  0  0
  -18.1304    7.6214    0.0000 C   0  0  0  0  0  0  0  0  0  0  0  0
  -17.0156    8.6251    0.0000 C   0  0  0  0  0  0  0  0  0  0  0  0
  -19.1341    8.7361    0.0000 C   0  0  0  0  0  0  0  0  0  0  0  0
  -17.1267    6.5067    0.0000 N   0  0  0  0  0  0  0  0  0  0  0  0
  -15.6594    6.8186    0.0000 C   0  0  0  0  0  0  0  0  0  0  0  0
  -15.5549    8.3149    0.0000 O   0  0  0  0  0  0  0  0  0  0  0  0
  -14.6557    5.7038    0.0000 C   0  0  0  0  0  0  0  0  0  0  0  0
  -14.9676    4.2366    0.0000 C   0  0  0  0  0  0  0  0  0  0  0  0
  -13.6686    3.4866    0.0000 C   0  0  0  0  0  0  0  0  0  0  0  0
  -12.5539    4.4903    0.0000 C   0  0  0  0  0  0  0  0  0  0  0  0
  -13.1640    5.8606    0.0000 C   0  0  0  0  0  0  0  0  0  0  0  0
  -12.4140    7.1597    0.0000 C   0  0  0  0  0  0  0  0  0  0  0  0
  -12.9678    7.7331    0.0000 O   0  0  0  0  0  0  0  0  0  0  0  0
  -10.9140    7.1597    0.0000 N   0  0  0  0  0  0  0  0  0  0  0  0
  -10.1640    8.4587    0.0000 C   0  0  0  0  0  0  0  0  0  0  0  0
  -10.9140    9.7578    0.0000 C   0  0  0  0  0  0  0  0  0  0  0  0
  -12.4140    9.7578    0.0000 C   0  0  0  0  0  0  0  0  0  0  0  0
  -13.1640    8.4587    0.0000 C   0  0  0  0  0  0  0  0  0  0  0  0
  -14.6640    8.4587    0.0000 C   0  0  0  0  0  0  0  0  0  0  0  0
  -15.4140    9.7578    0.0000 C   0  0  0  0  0  0  0  0  0  0  0  0
  -14.6640   11.0568    0.0000 C   0  0  0  0  0  0  0  0  0  0  0  0
  -13.1640   11.0568    0.0000 C   0  0  0  0  0  0  0  0  0  0  0  0
   -8.6640    8.4587    0.0000 C   0  0  0  0  0  0  0  0  0  0  0  0
   -8.2506    9.9006    0.0000 O   0  0  0  0  0  0  0  0  0  0  0  0
   -7.9140    7.1597    0.0000 C   0  0  0  0  0  0  0  0  0  0  0  0
   -6.4140    7.1597    0.0000 N   0  0  0  0  0  0  0  0  0  0  0  0
   -5.6640    8.4587    0.0000 C   0  0  0  0  0  0  0  0  0  0  0  0
   -6.4140    9.7578    0.0000 C   0  0  0  0  0  0  0  0  0  0  0  0
   -5.6640   11.0568    0.0000 C   0  0  0  0  0  0  0  0  0  0  0  0
   -6.4140   12.3558    0.0000 C   0  0  0  0  0  0  0  0  0  0  0  0
   -7.9140   12.3558    0.0000 C   0  0  0  0  0  0  0  0  0  0  0  0
   -8.6640   11.0568    0.0000 C   0  0  0  0  0  0  0  0  0  0  0  0
   -7.9140    9.7578    0.0000 C   0  0  0  0  0  0  0  0  0  0  0  0
   -5.6640    5.8606    0.0000 C   0  0  0  0  0  0  0  0  0  0  0  0
   -4.1640    5.8606    0.0000 O   0  0  0  0  0  0  0  0  0  0  0  0
   -6.4140    4.5616    0.0000 C   0  0  0  0  0  0  0  0  0  0  0  0
   -7.9140    4.5616    0.0000 C   0  0  0  0  0  0  0  0  0  0  0  0
   -8.6640    5.8606    0.0000 C   0  0  0  0  0  0  0  0  0  0  0  0
   -7.9140    7.1597    0.0000 C   0  0  0  0  0  0  0  0  0  0  0  0
   -8.6640    8.4587    0.0000 C   0  0  0  0  0  0  0  0  0  0  0  0
  -10.1640    8.4587    0.0000 C   0  0  0  0  0  0  0  0  0  0  0  0
  -10.9140    7.1597    0.0000 C   0  0  0  0  0  0  0  0  0  0  0  0
  -10.1640    5.8606    0.0000 C   0  0  0  0  0  0  0  0  0  0  0  0
   -5.6640    3.2626    0.0000 N   0  0  0  0  0  0  0  0  0  0  0  0
   -4.1640    3.2626    0.0000 C   0  0  0  0  0  0  0  0  0  0  0  0
   -3.4140    4.5616    0.0000 O   0  0  0  0  0  0  0  0  0  0  0  0
   -3.4140    1.9635    0.0000 O   0  0  0  0  0  0  0  0  0  0  0  0
   -1.9140    1.9635    0.0000 C   0  0  0  0  0  0  0  0  0  0  0  0
   -1.0323    3.1771    0.0000 C   0  0  0  0  0  0  0  0  0  0  0  0
    0.3943    2.7135    0.0000 O   0  0  0  0  0  0  0  0  0  0  0  0
    0.3943    1.2135    0.0000 C   0  0  0  0  0  0  0  0  0  0  0  0
    1.2760    0.0000    0.0000 O   0  0  0  0  0  0  0  0  0  0  0  0
    0.3943   -1.2135    0.0000 C   0  0  0  0  0  0  0  0  0  0  0  0
   -1.0323   -0.7500    0.0000 C   0  0  0  0  0  0  0  0  0  0  0  0
   -1.0323    0.7500    0.0000 C   0  0  0  0  0  0  0  0  0  0  0  0
  1  2  1  0
  2  3  1  0
  2  4  1  0
  2  5  1  0
  5  6  1  0
  6  7  2  0
  6  8  1  0
  8  9  1  0
  9 10  1  0
 10 11  1  0
 11 12  1  0
 12 13  1  0
 13 14  2  0
 13 15  1  0
 15 16  1  0
 16 17  1  0
 17 18  1  0
 18 19  2  0
 19 20  1  0
 20 21  2  0
 21 22  1  0
 22 23  2  0
 16 24  1  0
 24 25  1  0
 24 26  1  0
 26 27  1  0
 27 28  1  0
 28 29  1  0
 29 30  2  0
 30 31  1  0
 31 32  2  0
 32 33  1  0
 33 34  2  0
 27 35  1  0
 35 36  2  0
 35 37  1  0
 37 38  1  0
 38 39  1  0
 39 40  2  0
 40 41  1  0
 41 42  2  0
 42 43  1  0
 43 44  2  0
 37 45  1  0
 45 46  1  0
 46 47  2  0
 46 48  1  0
 48 49  1  0
 49 50  1  0
 50 51  1  0
 51 52  1  0
 52 53  1  0
 53 54  1  0
 54 55  1  0
 55 56  1  0
 12  8  1  0
 23 18  1  0
 34 29  1  0
 44 39  1  0
 56 49  1  0
 56 52  1  0
M  END
>  <Title>  (39) 
idAABMgen4

$$$$

     RDKit          2D

 36 41  0  0  0  0  0  0  0  0999 V2000
   -1.8760    4.4687    0.0000 O   0  0  0  0  0  0  0  0  0  0  0  0
   -3.2463    3.8586    0.0000 C   0  0  0  0  0  0  0  0  0  0  0  0
   -4.4598    4.7402    0.0000 N   0  0  0  0  0  0  0  0  0  0  0  0
   -4.3030    6.2320    0.0000 C   0  0  0  0  0  0  0  0  0  0  0  0
   -5.5165    7.1137    0.0000 C   0  0  0  0  0  0  0  0  0  0  0  0
   -6.5955    6.0717    0.0000 C   0  0  0  0  0  0  0  0  0  0  0  0
   -8.0374    6.4852    0.0000 C   0  0  0  0  0  0  0  0  0  0  0  0
   -9.1164    5.4432    0.0000 C   0  0  0  0  0  0  0  0  0  0  0  0
   -8.7536    3.9877    0.0000 C   0  0  0  0  0  0  0  0  0  0  0  0
   -7.3117    3.5743    0.0000 C   0  0  0  0  0  0  0  0  0  0  0  0
   -6.2327    4.6163    0.0000 C   0  0  0  0  0  0  0  0  0  0  0  0
   -6.3553    8.3573    0.0000 C   0  0  0  0  0  0  0  0  0  0  0  0
   -4.8590    8.4619    0.0000 C   0  0  0  0  0  0  0  0  0  0  0  0
   -3.4031    2.3668    0.0000 N   0  0  0  0  0  0  0  0  0  0  0  0
   -2.1895    1.4851    0.0000 C   0  0  0  0  0  0  0  0  0  0  0  0
   -0.8192    2.0952    0.0000 C   0  0  0  0  0  0  0  0  0  0  0  0
    0.3943    1.2135    0.0000 C   0  0  0  0  0  0  0  0  0  0  0  0
    1.2760    0.0000    0.0000 C   0  0  0  0  0  0  0  0  0  0  0  0
    0.3943   -1.2135    0.0000 C   0  0  0  0  0  0  0  0  0  0  0  0
   -1.0323   -0.7500    0.0000 C   0  0  0  0  0  0  0  0  0  0  0  0
   -2.3463   -0.0067    0.0000 C   0  0  0  0  0  0  0  0  0  0  0  0
   -1.0323    0.7500    0.0000 N   0  0  0  0  0  0  0  0  0  0  0  0
   -2.2458    1.6317    0.0000 C   0  0  0  0  0  0  0  0  0  0  0  0
   -2.0890    3.1235    0.0000 C   0  0  0  0  0  0  0  0  0  0  0  0
   -3.3025    4.0051    0.0000 C   0  0  0  0  0  0  0  0  0  0  0  0
   -3.1458    5.4969    0.0000 C   0  0  0  0  0  0  0  0  0  0  0  0
   -4.3593    6.3786    0.0000 C   0  0  0  0  0  0  0  0  0  0  0  0
   -5.7296    5.7685    0.0000 C   0  0  0  0  0  0  0  0  0  0  0  0
   -6.9431    6.6502    0.0000 C   0  0  0  0  0  0  0  0  0  0  0  0
   -6.7863    8.1420    0.0000 C   0  0  0  0  0  0  0  0  0  0  0  0
   -7.9999    9.0236    0.0000 C   0  0  0  0  0  0  0  0  0  0  0  0
   -9.3702    8.4135    0.0000 C   0  0  0  0  0  0  0  0  0  0  0  0
   -9.5270    6.9217    0.0000 C   0  0  0  0  0  0  0  0  0  0  0  0
   -8.3134    6.0401    0.0000 N   0  0  0  0  0  0  0  0  0  0  0  0
   -5.8864    4.2767    0.0000 C   0  0  0  0  0  0  0  0  0  0  0  0
   -4.6729    3.3950    0.0000 C   0  0  0  0  0  0  0  0  0  0  0  0
  1  2  2  0
  2  3  1  0
  3  4  1  0
  4  5  1  0
  5  6  1  0
  6  7  2  0
  7  8  1  0
  8  9  2  0
  9 10  1  0
 10 11  2  0
  5 12  1  0
 12 13  1  0
  2 14  1  0
 14 15  1  0
 15 16  1  0
 16 17  1  0
 17 18  1  0
 18 19  1  0
 19 20  1  0
 20 21  1  0
 20 22  1  0
 22 23  1  0
 23 24  1  0
 24 25  1  0
 25 26  2  0
 26 27  1  0
 27 28  2  0
 28 29  1  0
 29 30  2  0
 30 31  1  0
 31 32  2  0
 32 33  1  0
 33 34  2  0
 28 35  1  0
 35 36  2  0
 13  5  1  0
 21 15  1  0
 36 25  1  0
 11  6  1  0
 22 17  1  0
 34 29  1  0
M  END
>  <Title>  (40) 
idAABNgen4

$$$$

     RDKit          2D

 26 30  0  0  0  0  0  0  0  0999 V2000
   -0.7500   -3.8971    0.0000 O   0  0  0  0  0  0  0  0  0  0  0  0
    0.7500   -3.8971    0.0000 C   0  0  0  0  0  0  0  0  0  0  0  0
    1.5000   -2.5981    0.0000 C   0  0  0  0  0  0  0  0  0  0  0  0
    0.7500   -1.2990    0.0000 C   0  0  0  0  0  0  0  0  0  0  0  0
    1.5000    0.0000    0.0000 C   0  0  0  0  0  0  0  0  0  0  0  0
    0.7500    1.2990    0.0000 C   0  0  0  0  0  0  0  0  0  0  0  0
   -0.7500    1.2990    0.0000 C   0  0  0  0  0  0  0  0  0  0  0  0
   -1.5000    0.0000    0.0000 C   0  0  0  0  0  0  0  0  0  0  0  0
    1.7010   -0.7500    0.0000 C   0  0  0  0  0  0  0  0  0  0  0  0
    3.0000   -0.0000    0.0000 C   0  0  0  0  0  0  0  0  0  0  0  0
    2.2500    1.2990    0.0000 C   0  0  0  0  0  0  0  0  0  0  0  0
    2.2500   -1.2990    0.0000 C   0  0  0  0  0  0  0  0  0  0  0  0
   -0.7500   -1.2990    0.0000 C   0  0  0  0  0  0  0  0  0  0  0  0
    1.5000   -5.1962    0.0000 N   0  0  0  0  0  0  0  0  0  0  0  0
    0.7500   -6.4952    0.0000 C   0  0  0  0  0  0  0  0  0  0  0  0
   -0.7500   -6.4952    0.0000 C   0  0  0  0  0  0  0  0  0  0  0  0
   -1.5000   -7.7942    0.0000 C   0  0  0  0  0  0  0  0  0  0  0  0
   -0.7500   -9.0933    0.0000 C   0  0  0  0  0  0  0  0  0  0  0  0
   -1.5000  -10.3923    0.0000 C   0  0  0  0  0  0  0  0  0  0  0  0
   -3.0000  -10.3923    0.0000 C   0  0  0  0  0  0  0  0  0  0  0  0
   -3.7500  -11.6913    0.0000 C   0  0  0  0  0  0  0  0  0  0  0  0
   -3.0000  -12.9904    0.0000 C   0  0  0  0  0  0  0  0  0  0  0  0
   -1.5000  -12.9904    0.0000 C   0  0  0  0  0  0  0  0  0  0  0  0
   -0.7500  -11.6913    0.0000 C   0  0  0  0  0  0  0  0  0  0  0  0
    0.7500   -9.0933    0.0000 C   0  0  0  0  0  0  0  0  0  0  0  0
    1.5000   -7.7942    0.0000 C   0  0  0  0  0  0  0  0  0  0  0  0
  1  2  2  0
  2  3  1  0
  3  4  1  0
  4  5  1  0
  5  6  1  0
  6  7  1  0
  7  8  1  0
  8  9  1  0
  9 10  1  0
 10 11  1  0
 10 12  1  0
  8 13  1  0
  2 14  1  0
 14 15  1  0
 15 16  2  0
 16 17  1  0
 17 18  2  0
 18 19  1  0
 19 20  2  0
 20 21  1  0
 21 22  2  0
 22 23  1  0
 23 24  2  0
 18 25  1  0
 25 26  2  0
 12  4  1  0
 26 15  1  0
 13  4  1  0
 24 19  1  0
 11  6  1  0
M  END
>  <Title>  (41) 
idAABOgen4

$$$$

     RDKit          2D

 48 51  0  0  0  0  0  0  0  0999 V2000
    6.7500   -6.4952    0.0000 C   0  0  0  0  0  0  0  0  0  0  0  0
    6.0000   -5.1962    0.0000 C   0  0  0  0  0  0  0  0  0  0  0  0
    6.7500   -3.8971    0.0000 C   0  0  0  0  0  0  0  0  0  0  0  0
    4.5000   -5.1962    0.0000 C   0  0  0  0  0  0  0  0  0  0  0  0
    3.7500   -3.8971    0.0000 C   0  0  0  0  0  0  0  0  0  0  0  0
    2.2500   -3.8971    0.0000 N   0  0  0  0  0  0  0  0  0  0  0  0
    1.5000   -2.5981    0.0000 S   0  0  0  0  0  0  0  0  0  0  0  0
    0.2010   -3.3481    0.0000 O   0  0  0  0  0  0  0  0  0  0  0  0
    2.7990   -1.8481    0.0000 O   0  0  0  0  0  0  0  0  0  0  0  0
    0.7500   -1.2990    0.0000 C   0  0  0  0  0  0  0  0  0  0  0  0
    1.5000    0.0000    0.0000 C   0  0  0  0  0  0  0  0  0  0  0  0
    0.7500    1.2990    0.0000 C   0  0  0  0  0  0  0  0  0  0  0  0
   -0.7500    1.2990    0.0000 C   0  0  0  0  0  0  0  0  0  0  0  0
   -1.5000    0.0000    0.0000 C   0  0  0  0  0  0  0  0  0  0  0  0
   -0.7500   -1.2990    0.0000 C   0  0  0  0  0  0  0  0  0  0  0  0
    4.5000   -2.5981    0.0000 C   0  0  0  0  0  0  0  0  0  0  0  0
    3.7500   -1.2990    0.0000 O   0  0  0  0  0  0  0  0  0  0  0  0
    6.0000   -2.5981    0.0000 N   0  0  0  0  0  0  0  0  0  0  0  0
    6.7500   -1.2990    0.0000 C   0  0  0  0  0  0  0  0  0  0  0  0
    8.2500   -1.2990    0.0000 C   0  0  0  0  0  0  0  0  0  0  0  0
    9.0000   -0.0000    0.0000 C   0  0  0  0  0  0  0  0  0  0  0  0
   10.5000   -0.0000    0.0000 C   0  0  0  0  0  0  0  0  0  0  0  0
   11.2500    1.2990    0.0000 C   0  0  0  0  0  0  0  0  0  0  0  0
   10.5000    2.5981    0.0000 C   0  0  0  0  0  0  0  0  0  0  0  0
    9.0000    2.5981    0.0000 C   0  0  0  0  0  0  0  0  0  0  0  0
    8.2500    1.2990    0.0000 C   0  0  0  0  0  0  0  0  0  0  0  0
    6.0000   -0.0000    0.0000 C   0  0  0  0  0  0  0  0  0  0  0  0
    4.5000   -0.0000    0.0000 O   0  0  0  0  0  0  0  0  0  0  0  0
    6.7500    1.2990    0.0000 N   0  0  0  0  0  0  0  0  0  0  0  0
    6.0000    2.5981    0.0000 C   0  0  0  0  0  0  0  0  0  0  0  0
    6.7500    3.8971    0.0000 C   0  0  0  0  0  0  0  0  0  0  0  0
    6.0000    5.1962    0.0000 C   0  0  0  0  0  0  0  0  0  0  0  0
    6.7500    6.4952    0.0000 C   0  0  0  0  0  0  0  0  0  0  0  0
    6.0000    7.7942    0.0000 C   0  0  0  0  0  0  0  0  0  0  0  0
    4.5000    7.7942    0.0000 C   0  0  0  0  0  0  0  0  0  0  0  0
    3.7500    6.4952    0.0000 C   0  0  0  0  0  0  0  0  0  0  0  0
    4.5000    5.1962    0.0000 C   0  0  0  0  0  0  0  0  0  0  0  0
    4.5000    2.5981    0.0000 C   0  0  0  0  0  0  0  0  0  0  0  0
    3.7500    1.2990    0.0000 O   0  0  0  0  0  0  0  0  0  0  0  0
    3.7500    3.8971    0.0000 N   0  0  0  0  0  0  0  0  0  0  0  0
    2.2500    3.8971    0.0000 C   0  0  0  0  0  0  0  0  0  0  0  0
    1.5000    5.1962    0.0000 C   0  0  0  0  0  0  0  0  0  0  0  0
    0.0000    5.1962    0.0000 C   0  0  0  0  0  0  0  0  0  0  0  0
   -0.7500    6.4952    0.0000 C   0  0  0  0  0  0  0  0  0  0  0  0
   -2.2500    6.4952    0.0000 C   0  0  0  0  0  0  0  0  0  0  0  0
   -3.0000    5.1962    0.0000 C   0  0  0  0  0  0  0  0  0  0  0  0
   -2.2500    3.8971    0.0000 C   0  0  0  0  0  0  0  0  0  0  0  0
   -0.7500    3.8971    0.0000 C   0  0  0  0  0  0  0  0  0  0  0  0
  1  2  1  0
  2  3  1  0
  2  4  1  0
  4  5  1  0
  5  6  1  0
  6  7  1  0
  7  8  2  0
  7  9  2  0
  7 10  1  0
 10 11  2  0
 11 12  1  0
 12 13  2  0
 13 14  1  0
 14 15  2  0
  5 16  1  0
 16 17  2  0
 16 18  1  0
 18 19  1  0
 19 20  1  0
 20 21  1  0
 21 22  2  0
 22 23  1  0
 23 24  2  0
 24 25  1  0
 25 26  2  0
 19 27  1  0
 27 28  2  0
 27 29  1  0
 29 30  1  0
 30 31  1  0
 31 32  1  0
 32 33  2  0
 33 34  1  0
 34 35  2  0
 35 36  1  0
 36 37  2  0
 30 38  1  0
 38 39  2  0
 38 40  1  0
 40 41  1  0
 41 42  1  0
 42 43  1  0
 43 44  2  0
 44 45  1  0
 45 46  2  0
 46 47  1  0
 47 48  2  0
 15 10  1  0
 26 21  1  0
 37 32  1  0
 48 43  1  0
M  END
>  <Title>  (42) 
idAABPgen4

$$$$

     RDKit          2D

 56 61  0  0  0  0  0  0  0  0999 V2000
    1.0860   12.3558    0.0000 C   0  0  0  0  0  0  0  0  0  0  0  0
    0.3360   11.0568    0.0000 C   0  0  0  0  0  0  0  0  0  0  0  0
    1.0860    9.7578    0.0000 C   0  0  0  0  0  0  0  0  0  0  0  0
   -1.1640   11.0568    0.0000 C   0  0  0  0  0  0  0  0  0  0  0  0
   -1.9140    9.7578    0.0000 N   0  0  0  0  0  0  0  0  0  0  0  0
   -3.4140    9.7578    0.0000 C   0  0  0  0  0  0  0  0  0  0  0  0
   -4.1640    8.4587    0.0000 C   0  0  0  0  0  0  0  0  0  0  0  0
   -3.4140    7.1597    0.0000 O   0  0  0  0  0  0  0  0  0  0  0  0
   -5.6640    8.4587    0.0000 C   0  0  0  0  0  0  0  0  0  0  0  0
   -6.4140    9.7578    0.0000 C   0  0  0  0  0  0  0  0  0  0  0  0
   -5.6640   11.0568    0.0000 C   0  0  0  0  0  0  0  0  0  0  0  0
   -4.1640   11.0568    0.0000 C   0  0  0  0  0  0  0  0  0  0  0  0
   -3.4140   12.3558    0.0000 C   0  0  0  0  0  0  0  0  0  0  0  0
   -4.1640   13.6549    0.0000 C   0  0  0  0  0  0  0  0  0  0  0  0
   -5.6640   13.6549    0.0000 C   0  0  0  0  0  0  0  0  0  0  0  0
   -6.4140   12.3558    0.0000 C   0  0  0  0  0  0  0  0  0  0  0  0
   -6.4140    7.1597    0.0000 N   0  0  0  0  0  0  0  0  0  0  0  0
   -5.6640    5.8606    0.0000 C   0  0  0  0  0  0  0  0  0  0  0  0
   -4.1640    5.8606    0.0000 O   0  0  0  0  0  0  0  0  0  0  0  0
   -6.4140    4.5616    0.0000 C   0  0  0  0  0  0  0  0  0  0  0  0
   -7.9140    4.5616    0.0000 C   0  0  0  0  0  0  0  0  0  0  0  0
   -8.6640    5.8606    0.0000 C   0  0  0  0  0  0  0  0  0  0  0  0
   -7.9140    7.1597    0.0000 C   0  0  0  0  0  0  0  0  0  0  0  0
   -8.6640    8.4587    0.0000 C   0  0  0  0  0  0  0  0  0  0  0  0
  -10.1640    8.4587    0.0000 C   0  0  0  0  0  0  0  0  0  0  0  0
  -10.9140    7.1597    0.0000 C   0  0  0  0  0  0  0  0  0  0  0  0
  -10.1640    5.8606    0.0000 C   0  0  0  0  0  0  0  0  0  0  0  0
   -5.6640    3.2626    0.0000 N   0  0  0  0  0  0  0  0  0  0  0  0
   -4.1640    3.2626    0.0000 C   0  0  0  0  0  0  0  0  0  0  0  0
   -3.4140    4.5616    0.0000 O   0  0  0  0  0  0  0  0  0  0  0  0
   -3.4140    1.9635    0.0000 O   0  0  0  0  0  0  0  0  0  0  0  0
   -1.9140    1.9635    0.0000 C   0  0  0  0  0  0  0  0  0  0  0  0
   -1.0323    3.1771    0.0000 C   0  0  0  0  0  0  0  0  0  0  0  0
    0.3943    2.7135    0.0000 O   0  0  0  0  0  0  0  0  0  0  0  0
    0.3943    1.2135    0.0000 C   0  0  0  0  0  0  0  0  0  0  0  0
    1.2760    0.0000    0.0000 O   0  0  0  0  0  0  0  0  0  0  0  0
    0.3943   -1.2135    0.0000 C   0  0  0  0  0  0  0  0  0  0  0  0
   -1.0323   -0.7500    0.0000 C   0  0  0  0  0  0  0  0  0  0  0  0
   -1.0323    0.7500    0.0000 C   0  0  0  0  0  0  0  0  0  0  0  0
   -1.1640    8.4587    0.0000 S   0  0  0  0  0  0  0  0  0  0  0  0
   -2.4630    7.7087    0.0000 O   0  0  0  0  0  0  0  0  0  0  0  0
    0.1351    9.2087    0.0000 O   0  0  0  0  0  0  0  0  0  0  0  0
   -0.4140    7.1597    0.0000 C   0  0  0  0  0  0  0  0  0  0  0  0
   -1.1640    5.8606    0.0000 C   0  0  0  0  0  0  0  0  0  0  0  0
   -0.4140    4.5616    0.0000 C   0  0  0  0  0  0  0  0  0  0  0  0
    1.0860    4.5616    0.0000 C   0  0  0  0  0  0  0  0  0  0  0  0
    1.8360    3.2626    0.0000 N   0  0  0  0  0  0  0  0  0  0  0  0
    3.3360    3.2626    0.0000 C   0  0  0  0  0  0  0  0  0  0  0  0
    4.0860    1.9635    0.0000 C   0  0  0  0  0  0  0  0  0  0  0  0
    3.3360    0.6645    0.0000 C   0  0  0  0  0  0  0  0  0  0  0  0
    4.0860   -0.6346    0.0000 C   0  0  0  0  0  0  0  0  0  0  0  0
    5.5860   -0.6346    0.0000 C   0  0  0  0  0  0  0  0  0  0  0  0
    6.3360    0.6645    0.0000 C   0  0  0  0  0  0  0  0  0  0  0  0
    5.5860    1.9635    0.0000 C   0  0  0  0  0  0  0  0  0  0  0  0
    1.8360    5.8606    0.0000 C   0  0  0  0  0  0  0  0  0  0  0  0
    1.0860    7.1597    0.0000 C   0  0  0  0  0  0  0  0  0  0  0  0
  1  2  1  0
  2  3  1  0
  2  4  1  0
  4  5  1  0
  5  6  1  0
  6  7  1  0
  7  8  1  0
  7  9  1  0
  9 10  1  0
 10 11  1  0
 11 12  2  0
 12 13  1  0
 13 14  2  0
 14 15  1  0
 15 16  2  0
  9 17  1  0
 17 18  1  0
 18 19  2  0
 18 20  1  0
 20 21  1  0
 21 22  1  0
 22 23  2  0
 23 24  1  0
 24 25  2  0
 25 26  1  0
 26 27  2  0
 20 28  1  0
 28 29  1  0
 29 30  2  0
 29 31  1  0
 31 32  1  0
 32 33  1  0
 33 34  1  0
 34 35  1  0
 35 36  1  0
 36 37  1  0
 37 38  1  0
 38 39  1  0
  5 40  1  0
 40 41  2  0
 40 42  2  0
 40 43  1  0
 43 44  2  0
 44 45  1  0
 45 46  2  0
 46 47  1  0
 47 48  1  0
 48 49  1  0
 49 50  2  0
 50 51  1  0
 51 52  2  0
 52 53  1  0
 53 54  2  0
 46 55  1  0
 55 56  2  0
 16 11  1  0
 27 22  1  0
 39 32  1  0
 56 43  1  0
 39 35  1  0
 54 49  1  0
M  END
>  <Title>  (43) 
idAABQgen4

$$$$

     RDKit          2D

 62 66  0  0  0  0  0  0  0  0999 V2000
   13.5000   -2.5981    0.0000 C   0  0  0  0  0  0  0  0  0  0  0  0
   12.7500   -1.2990    0.0000 C   0  0  0  0  0  0  0  0  0  0  0  0
   11.2500   -1.2990    0.0000 C   0  0  0  0  0  0  0  0  0  0  0  0
   13.5000   -0.0000    0.0000 C   0  0  0  0  0  0  0  0  0  0  0  0
   12.7500    1.2990    0.0000 C   0  0  0  0  0  0  0  0  0  0  0  0
   13.5000    2.5981    0.0000 N   0  0  0  0  0  0  0  0  0  0  0  0
   12.7500    3.8971    0.0000 S   0  0  0  0  0  0  0  0  0  0  0  0
   14.0490    4.6471    0.0000 O   0  0  0  0  0  0  0  0  0  0  0  0
   11.4510    3.1471    0.0000 O   0  0  0  0  0  0  0  0  0  0  0  0
   12.0000    5.1962    0.0000 C   0  0  0  0  0  0  0  0  0  0  0  0
   10.5000    5.1962    0.0000 C   0  0  0  0  0  0  0  0  0  0  0  0
    9.7500    6.4952    0.0000 C   0  0  0  0  0  0  0  0  0  0  0  0
   10.5000    7.7942    0.0000 C   0  0  0  0  0  0  0  0  0  0  0  0
   12.0000    7.7942    0.0000 C   0  0  0  0  0  0  0  0  0  0  0  0
   12.7500    6.4952    0.0000 C   0  0  0  0  0  0  0  0  0  0  0  0
   11.2500    1.2990    0.0000 C   0  0  0  0  0  0  0  0  0  0  0  0
   10.5000    2.5981    0.0000 O   0  0  0  0  0  0  0  0  0  0  0  0
   10.5000   -0.0000    0.0000 N   0  0  0  0  0  0  0  0  0  0  0  0
    9.0000   -0.0000    0.0000 C   0  0  0  0  0  0  0  0  0  0  0  0
    8.2500   -1.2990    0.0000 C   0  0  0  0  0  0  0  0  0  0  0  0
    6.7500   -1.2990    0.0000 C   0  0  0  0  0  0  0  0  0  0  0  0
    6.0000   -2.5981    0.0000 C   0  0  0  0  0  0  0  0  0  0  0  0
    4.5000   -2.5981    0.0000 C   0  0  0  0  0  0  0  0  0  0  0  0
    3.7500   -1.2990    0.0000 C   0  0  0  0  0  0  0  0  0  0  0  0
    4.5000    0.0000    0.0000 C   0  0  0  0  0  0  0  0  0  0  0  0
    6.0000   -0.0000    0.0000 C   0  0  0  0  0  0  0  0  0  0  0  0
    8.2500    1.2990    0.0000 C   0  0  0  0  0  0  0  0  0  0  0  0
    9.0000    2.5981    0.0000 O   0  0  0  0  0  0  0  0  0  0  0  0
    6.7500    1.2990    0.0000 N   0  0  0  0  0  0  0  0  0  0  0  0
    6.0000    2.5981    0.0000 C   0  0  0  0  0  0  0  0  0  0  0  0
    6.7500    3.8971    0.0000 C   0  0  0  0  0  0  0  0  0  0  0  0
    6.0000    5.1962    0.0000 C   0  0  0  0  0  0  0  0  0  0  0  0
    6.7500    6.4952    0.0000 C   0  0  0  0  0  0  0  0  0  0  0  0
    6.0000    7.7942    0.0000 C   0  0  0  0  0  0  0  0  0  0  0  0
    4.5000    7.7942    0.0000 C   0  0  0  0  0  0  0  0  0  0  0  0
    3.7500    6.4952    0.0000 C   0  0  0  0  0  0  0  0  0  0  0  0
    4.5000    5.1962    0.0000 C   0  0  0  0  0  0  0  0  0  0  0  0
    4.5000    2.5981    0.0000 C   0  0  0  0  0  0  0  0  0  0  0  0
    3.7500    1.2990    0.0000 O   0  0  0  0  0  0  0  0  0  0  0  0
    3.7500    3.8971    0.0000 N   0  0  0  0  0  0  0  0  0  0  0  0
    2.2500    3.8971    0.0000 C   0  0  0  0  0  0  0  0  0  0  0  0
    1.5000    2.5981    0.0000 C   0  0  0  0  0  0  0  0  0  0  0  0
    0.0000    2.5981    0.0000 C   0  0  0  0  0  0  0  0  0  0  0  0
   -0.7500    3.8971    0.0000 C   0  0  0  0  0  0  0  0  0  0  0  0
   -2.2500    3.8971    0.0000 C   0  0  0  0  0  0  0  0  0  0  0  0
   -3.0000    2.5981    0.0000 C   0  0  0  0  0  0  0  0  0  0  0  0
   -2.2500    1.2990    0.0000 C   0  0  0  0  0  0  0  0  0  0  0  0
   -0.7500    1.2990    0.0000 C   0  0  0  0  0  0  0  0  0  0  0  0
    1.5000    5.1962    0.0000 C   0  0  0  0  0  0  0  0  0  0  0  0
    2.2500    6.4952    0.0000 O   0  0  0  0  0  0  0  0  0  0  0  0
    0.0000    5.1962    0.0000 N   0  0  0  0  0  0  0  0  0  0  0  0
   -0.7500    6.4952    0.0000 C   0  0  0  0  0  0  0  0  0  0  0  0
   -2.2500    6.4952    0.0000 C   0  0  0  0  0  0  0  0  0  0  0  0
   -3.0000    7.7942    0.0000 C   0  0  0  0  0  0  0  0  0  0  0  0
   -4.5000    7.7942    0.0000 C   0  0  0  0  0  0  0  0  0  0  0  0
   -5.2500    9.0933    0.0000 C   0  0  0  0  0  0  0  0  0  0  0  0
   -4.5000   10.3923    0.0000 C   0  0  0  0  0  0  0  0  0  0  0  0
   -3.0000   10.3923    0.0000 C   0  0  0  0  0  0  0  0  0  0  0  0
   -2.2500    9.0933    0.0000 C   0  0  0  0  0  0  0  0  0  0  0  0
    0.0000    7.7942    0.0000 C   0  0  0  0  0  0  0  0  0  0  0  0
    1.5000    7.7942    0.0000 O   0  0  0  0  0  0  0  0  0  0  0  0
   -0.7500    9.0933    0.0000 O   0  0  0  0  0  0  0  0  0  0  0  0
  1  2  1  0
  2  3  1  0
  2  4  1  0
  4  5  1  0
  5  6  1  0
  6  7  1  0
  7  8  2  0
  7  9  2  0
  7 10  1  0
 10 11  2  0
 11 12  1  0
 12 13  2  0
 13 14  1  0
 14 15  2  0
  5 16  1  0
 16 17  2  0
 16 18  1  0
 18 19  1  0
 19 20  1  0
 20 21  1  0
 21 22  2  0
 22 23  1  0
 23 24  2  0
 24 25  1  0
 25 26  2  0
 19 27  1  0
 27 28  2  0
 27 29  1  0
 29 30  1  0
 30 31  1  0
 31 32  1  0
 32 33  2  0
 33 34  1  0
 34 35  2  0
 35 36  1  0
 36 37  2  0
 30 38  1  0
 38 39  2  0
 38 40  1  0
 40 41  1  0
 41 42  1  0
 42 43  1  0
 43 44  2  0
 44 45  1  0
 45 46  2  0
 46 47  1  0
 47 48  2  0
 41 49  1  0
 49 50  2  0
 49 51  1  0
 51 52  1  0
 52 53  1  0
 53 54  1  0
 54 55  2  0
 55 56  1  0
 56 57  2  0
 57 58  1  0
 58 59  2  0
 52 60  1  0
 60 61  2  0
 60 62  1  0
 15 10  1  0
 26 21  1  0
 37 32  1  0
 48 43  1  0
 59 54  1  0
M  END
>  <Title>  (44) 
idAABRgen4

$$$$

     RDKit          2D

 42 45  0  0  0  0  0  0  0  0999 V2000
   -0.7500   -6.4952    0.0000 O   0  0  0  0  0  0  0  0  0  0  0  0
   -1.5000   -5.1962    0.0000 C   0  0  0  0  0  0  0  0  0  0  0  0
   -0.7500   -3.8971    0.0000 N   0  0  0  0  0  0  0  0  0  0  0  0
    0.7500   -3.8971    0.0000 C   0  0  0  0  0  0  0  0  0  0  0  0
    1.5000   -2.5981    0.0000 C   0  0  0  0  0  0  0  0  0  0  0  0
    0.7500   -1.2990    0.0000 C   0  0  0  0  0  0  0  0  0  0  0  0
    1.5000    0.0000    0.0000 C   0  0  0  0  0  0  0  0  0  0  0  0
    0.7500    1.2990    0.0000 C   0  0  0  0  0  0  0  0  0  0  0  0
   -0.7500    1.2990    0.0000 C   0  0  0  0  0  0  0  0  0  0  0  0
   -1.5000    0.0000    0.0000 C   0  0  0  0  0  0  0  0  0  0  0  0
   -0.7500   -1.2990    0.0000 C   0  0  0  0  0  0  0  0  0  0  0  0
    1.5000   -5.1962    0.0000 C   0  0  0  0  0  0  0  0  0  0  0  0
    3.0000   -5.1962    0.0000 O   0  0  0  0  0  0  0  0  0  0  0  0
    0.7500   -6.4952    0.0000 N   0  0  0  0  0  0  0  0  0  0  0  0
    1.5000   -7.7942    0.0000 C   0  0  0  0  0  0  0  0  0  0  0  0
    0.7500   -9.0933    0.0000 C   0  0  0  0  0  0  0  0  0  0  0  0
    1.5000  -10.3923    0.0000 C   0  0  0  0  0  0  0  0  0  0  0  0
    0.7500  -11.6913    0.0000 C   0  0  0  0  0  0  0  0  0  0  0  0
    1.5000  -12.9904    0.0000 C   0  0  0  0  0  0  0  0  0  0  0  0
    3.0000  -12.9904    0.0000 C   0  0  0  0  0  0  0  0  0  0  0  0
    3.7500  -11.6913    0.0000 C   0  0  0  0  0  0  0  0  0  0  0  0
    3.0000  -10.3923    0.0000 C   0  0  0  0  0  0  0  0  0  0  0  0
    3.0000   -7.7942    0.0000 C   0  0  0  0  0  0  0  0  0  0  0  0
    3.7500   -6.4952    0.0000 O   0  0  0  0  0  0  0  0  0  0  0  0
    3.7500   -9.0933    0.0000 N   0  0  0  0  0  0  0  0  0  0  0  0
    5.2500   -9.0933    0.0000 C   0  0  0  0  0  0  0  0  0  0  0  0
    6.0000  -10.3923    0.0000 C   0  0  0  0  0  0  0  0  0  0  0  0
    7.5000  -10.3923    0.0000 C   0  0  0  0  0  0  0  0  0  0  0  0
    8.2500  -11.6913    0.0000 C   0  0  0  0  0  0  0  0  0  0  0  0
    9.7500  -11.6913    0.0000 C   0  0  0  0  0  0  0  0  0  0  0  0
   10.5000  -10.3923    0.0000 C   0  0  0  0  0  0  0  0  0  0  0  0
    9.7500   -9.0933    0.0000 C   0  0  0  0  0  0  0  0  0  0  0  0
    8.2500   -9.0933    0.0000 C   0  0  0  0  0  0  0  0  0  0  0  0
    6.0000   -7.7942    0.0000 C   0  0  0  0  0  0  0  0  0  0  0  0
    5.2500   -6.4952    0.0000 O   0  0  0  0  0  0  0  0  0  0  0  0
    7.5000   -7.7942    0.0000 O   0  0  0  0  0  0  0  0  0  0  0  0
   -3.0000   -5.1962    0.0000 C   0  0  0  0  0  0  0  0  0  0  0  0
   -3.7500   -3.8971    0.0000 C   0  0  0  0  0  0  0  0  0  0  0  0
   -5.2500   -3.8971    0.0000 C   0  0  0  0  0  0  0  0  0  0  0  0
   -6.0000   -5.1962    0.0000 C   0  0  0  0  0  0  0  0  0  0  0  0
   -5.2500   -6.4952    0.0000 C   0  0  0  0  0  0  0  0  0  0  0  0
   -3.7500   -6.4952    0.0000 C   0  0  0  0  0  0  0  0  0  0  0  0
  1  2  2  0
  2  3  1  0
  3  4  1  0
  4  5  1  0
  5  6  1  0
  6  7  2  0
  7  8  1  0
  8  9  2  0
  9 10  1  0
 10 11  2  0
  4 12  1  0
 12 13  2  0
 12 14  1  0
 14 15  1  0
 15 16  1  0
 16 17  1  0
 17 18  2  0
 18 19  1  0
 19 20  2  0
 20 21  1  0
 21 22  2  0
 15 23  1  0
 23 24  2  0
 23 25  1  0
 25 26  1  0
 26 27  1  0
 27 28  1  0
 28 29  2  0
 29 30  1  0
 30 31  2  0
 31 32  1  0
 32 33  2  0
 26 34  1  0
 34 35  2  0
 34 36  1  0
  2 37  1  0
 37 38  2  0
 38 39  1  0
 39 40  2  0
 40 41  1  0
 41 42  2  0
 11  6  1  0
 22 17  1  0
 33 28  1  0
 42 37  1  0
M  END
>  <Title>  (45) 
idAABSgen4

$$$$

     RDKit          2D

 19 21  0  0  0  0  0  0  0  0999 V2000
    3.0000    0.0000    0.0000 C   0  0  0  0  0  0  0  0  0  0  0  0
    1.5000    0.0000    0.0000 C   0  0  0  0  0  0  0  0  0  0  0  0
    0.7500   -1.2990    0.0000 C   0  0  0  0  0  0  0  0  0  0  0  0
   -0.7500   -1.2990    0.0000 C   0  0  0  0  0  0  0  0  0  0  0  0
   -1.5000    0.0000    0.0000 C   0  0  0  0  0  0  0  0  0  0  0  0
   -0.7500    1.2990    0.0000 C   0  0  0  0  0  0  0  0  0  0  0  0
   -2.2500    1.2990    0.0000 C   0  0  0  0  0  0  0  0  0  0  0  0
   -1.5000    2.5981    0.0000 C   0  0  0  0  0  0  0  0  0  0  0  0
   -3.0000    2.5981    0.0000 C   0  0  0  0  0  0  0  0  0  0  0  0
   -3.7500    3.8971    0.0000 C   0  0  0  0  0  0  0  0  0  0  0  0
   -5.2500    3.8971    0.0000 C   0  0  0  0  0  0  0  0  0  0  0  0
   -6.1317    2.6836    0.0000 C   0  0  0  0  0  0  0  0  0  0  0  0
   -7.5583    3.1471    0.0000 C   0  0  0  0  0  0  0  0  0  0  0  0
   -7.5583    4.6471    0.0000 C   0  0  0  0  0  0  0  0  0  0  0  0
   -6.1317    5.1106    0.0000 C   0  0  0  0  0  0  0  0  0  0  0  0
   -0.7500    3.8971    0.0000 C   0  0  0  0  0  0  0  0  0  0  0  0
    0.7500    3.8971    0.0000 C   0  0  0  0  0  0  0  0  0  0  0  0
    1.5000    2.5981    0.0000 C   0  0  0  0  0  0  0  0  0  0  0  0
    0.7500    1.2990    0.0000 C   0  0  0  0  0  0  0  0  0  0  0  0
  1  2  1  0
  2  3  2  0
  3  4  1  0
  4  5  1  0
  5  6  1  0
  6  7  1  0
  6  8  1  0
  8  9  1  0
  9 10  1  0
 10 11  1  0
 11 12  1  0
 12 13  1  0
 13 14  1  0
 14 15  1  0
  8 16  1  0
 16 17  1  0
 17 18  1  0
 18 19  1  0
 19  2  1  0
 19  6  1  0
 15 11  1  0
M  END
>  <Title>  (46) 
idAABTgen4

$$$$

     RDKit          2D

 48 52  0  0  0  0  0  0  0  0999 V2000
    0.3360    8.4587    0.0000 C   0  0  0  0  0  0  0  0  0  0  0  0
   -1.1640    8.4587    0.0000 C   0  0  0  0  0  0  0  0  0  0  0  0
   -1.9140    7.1597    0.0000 C   0  0  0  0  0  0  0  0  0  0  0  0
   -1.9140    9.7578    0.0000 C   0  0  0  0  0  0  0  0  0  0  0  0
   -3.4140    9.7578    0.0000 C   0  0  0  0  0  0  0  0  0  0  0  0
   -4.1640   11.0568    0.0000 N   0  0  0  0  0  0  0  0  0  0  0  0
   -3.4140   12.3558    0.0000 S   0  0  0  0  0  0  0  0  0  0  0  0
   -2.1149   11.6058    0.0000 O   0  0  0  0  0  0  0  0  0  0  0  0
   -4.7130   13.1058    0.0000 O   0  0  0  0  0  0  0  0  0  0  0  0
   -2.6640   13.6549    0.0000 C   0  0  0  0  0  0  0  0  0  0  0  0
   -1.1640   13.6549    0.0000 C   0  0  0  0  0  0  0  0  0  0  0  0
   -0.4140   14.9539    0.0000 C   0  0  0  0  0  0  0  0  0  0  0  0
   -1.1640   16.2529    0.0000 C   0  0  0  0  0  0  0  0  0  0  0  0
   -2.6640   16.2529    0.0000 C   0  0  0  0  0  0  0  0  0  0  0  0
   -3.4140   14.9539    0.0000 C   0  0  0  0  0  0  0  0  0  0  0  0
   -4.1640    8.4587    0.0000 C   0  0  0  0  0  0  0  0  0  0  0  0
   -3.4140    7.1597    0.0000 O   0  0  0  0  0  0  0  0  0  0  0  0
   -5.6640    8.4587    0.0000 C   0  0  0  0  0  0  0  0  0  0  0  0
   -6.4140    9.7578    0.0000 C   0  0  0  0  0  0  0  0  0  0  0  0
   -7.9140    9.7578    0.0000 C   0  0  0  0  0  0  0  0  0  0  0  0
   -8.6640    8.4587    0.0000 C   0  0  0  0  0  0  0  0  0  0  0  0
  -10.1640    8.4587    0.0000 C   0  0  0  0  0  0  0  0  0  0  0  0
  -10.9140    9.7578    0.0000 C   0  0  0  0  0  0  0  0  0  0  0  0
  -10.1640   11.0568    0.0000 C   0  0  0  0  0  0  0  0  0  0  0  0
   -8.6640   11.0568    0.0000 C   0  0  0  0  0  0  0  0  0  0  0  0
   -6.4140    7.1597    0.0000 N   0  0  0  0  0  0  0  0  0  0  0  0
   -5.6640    5.8606    0.0000 C   0  0  0  0  0  0  0  0  0  0  0  0
   -4.1640    5.8606    0.0000 O   0  0  0  0  0  0  0  0  0  0  0  0
   -6.4140    4.5616    0.0000 C   0  0  0  0  0  0  0  0  0  0  0  0
   -7.9140    4.5616    0.0000 C   0  0  0  0  0  0  0  0  0  0  0  0
   -8.6640    3.2626    0.0000 C   0  0  0  0  0  0  0  0  0  0  0  0
   -7.9140    1.9635    0.0000 C   0  0  0  0  0  0  0  0  0  0  0  0
   -8.6640    0.6645    0.0000 C   0  0  0  0  0  0  0  0  0  0  0  0
  -10.1640    0.6645    0.0000 C   0  0  0  0  0  0  0  0  0  0  0  0
  -10.9140    1.9635    0.0000 C   0  0  0  0  0  0  0  0  0  0  0  0
  -10.1640    3.2626    0.0000 C   0  0  0  0  0  0  0  0  0  0  0  0
   -5.6640    3.2626    0.0000 N   0  0  0  0  0  0  0  0  0  0  0  0
   -4.1640    3.2626    0.0000 C   0  0  0  0  0  0  0  0  0  0  0  0
   -3.4140    4.5616    0.0000 O   0  0  0  0  0  0  0  0  0  0  0  0
   -3.4140    1.9635    0.0000 O   0  0  0  0  0  0  0  0  0  0  0  0
   -1.9140    1.9635    0.0000 C   0  0  0  0  0  0  0  0  0  0  0  0
   -1.0323    3.1771    0.0000 C   0  0  0  0  0  0  0  0  0  0  0  0
    0.3943    2.7135    0.0000 O   0  0  0  0  0  0  0  0  0  0  0  0
    0.3943    1.2135    0.0000 C   0  0  0  0  0  0  0  0  0  0  0  0
    1.2760    0.0000    0.0000 O   0  0  0  0  0  0  0  0  0  0  0  0
    0.3943   -1.2135    0.0000 C   0  0  0  0  0  0  0  0  0  0  0  0
   -1.0323   -0.7500    0.0000 C   0  0  0  0  0  0  0  0  0  0  0  0
   -1.0323    0.7500    0.0000 C   0  0  0  0  0  0  0  0  0  0  0  0
  1  2  1  0
  2  3  1  0
  2  4  1  0
  4  5  1  0
  5  6  1  0
  6  7  1  0
  7  8  2  0
  7  9  2  0
  7 10  1  0
 10 11  2  0
 11 12  1  0
 12 13  2  0
 13 14  1  0
 14 15  2  0
  5 16  1  0
 16 17  1  0
 16 18  1  0
 18 19  1  0
 19 20  1  0
 20 21  2  0
 21 22  1  0
 22 23  2  0
 23 24  1  0
 24 25  2  0
 18 26  1  0
 26 27  1  0
 27 28  2  0
 27 29  1  0
 29 30  1  0
 30 31  1  0
 31 32  2  0
 32 33  1  0
 33 34  2  0
 34 35  1  0
 35 36  2  0
 29 37  1  0
 37 38  1  0
 38 39  2  0
 38 40  1  0
 40 41  1  0
 41 42  1  0
 42 43  1  0
 43 44  1  0
 44 45  1  0
 45 46  1  0
 46 47  1  0
 47 48  1  0
 15 10  1  0
 25 20  1  0
 36 31  1  0
 48 41  1  0
 48 44  1  0
M  END
>  <Title>  (47) 
idAABUgen4

$$$$

     RDKit          2D

 75 81  0  0  0  0  0  0  0  0999 V2000
    0.3360    3.2626    0.0000 C   0  0  0  0  0  0  0  0  0  0  0  0
    1.0860    4.5616    0.0000 C   0  0  0  0  0  0  0  0  0  0  0  0
    2.5860    4.5616    0.0000 C   0  0  0  0  0  0  0  0  0  0  0  0
    0.3360    5.8606    0.0000 C   0  0  0  0  0  0  0  0  0  0  0  0
    1.0860    7.1597    0.0000 N   0  0  0  0  0  0  0  0  0  0  0  0
    0.3360    8.4587    0.0000 C   0  0  0  0  0  0  0  0  0  0  0  0
   -1.1640    8.4587    0.0000 C   0  0  0  0  0  0  0  0  0  0  0  0
   -1.9140    7.1597    0.0000 O   0  0  0  0  0  0  0  0  0  0  0  0
   -1.9140    9.7578    0.0000 C   0  0  0  0  0  0  0  0  0  0  0  0
   -1.1640   11.0568    0.0000 C   0  0  0  0  0  0  0  0  0  0  0  0
    0.3360   11.0568    0.0000 C   0  0  0  0  0  0  0  0  0  0  0  0
    1.0860    9.7578    0.0000 C   0  0  0  0  0  0  0  0  0  0  0  0
    2.5860    9.7578    0.0000 C   0  0  0  0  0  0  0  0  0  0  0  0
    3.3360   11.0568    0.0000 C   0  0  0  0  0  0  0  0  0  0  0  0
    2.5860   12.3558    0.0000 C   0  0  0  0  0  0  0  0  0  0  0  0
    1.0860   12.3558    0.0000 C   0  0  0  0  0  0  0  0  0  0  0  0
   -3.4140    9.7578    0.0000 N   0  0  0  0  0  0  0  0  0  0  0  0
   -4.1640    8.4587    0.0000 C   0  0  0  0  0  0  0  0  0  0  0  0
   -3.4140    7.1597    0.0000 O   0  0  0  0  0  0  0  0  0  0  0  0
   -5.6640    8.4587    0.0000 C   0  0  0  0  0  0  0  0  0  0  0  0
   -6.4140    9.7578    0.0000 C   0  0  0  0  0  0  0  0  0  0  0  0
   -5.6640   11.0568    0.0000 C   0  0  0  0  0  0  0  0  0  0  0  0
   -4.1640   11.0568    0.0000 C   0  0  0  0  0  0  0  0  0  0  0  0
   -3.4140   12.3558    0.0000 C   0  0  0  0  0  0  0  0  0  0  0  0
   -4.1640   13.6549    0.0000 C   0  0  0  0  0  0  0  0  0  0  0  0
   -5.6640   13.6549    0.0000 C   0  0  0  0  0  0  0  0  0  0  0  0
   -6.4140   12.3558    0.0000 C   0  0  0  0  0  0  0  0  0  0  0  0
   -6.4140    7.1597    0.0000 N   0  0  0  0  0  0  0  0  0  0  0  0
   -5.6640    5.8606    0.0000 C   0  0  0  0  0  0  0  0  0  0  0  0
   -4.1640    5.8606    0.0000 O   0  0  0  0  0  0  0  0  0  0  0  0
   -6.4140    4.5616    0.0000 C   0  0  0  0  0  0  0  0  0  0  0  0
   -7.9140    4.5616    0.0000 C   0  0  0  0  0  0  0  0  0  0  0  0
   -8.6640    5.8606    0.0000 C   0  0  0  0  0  0  0  0  0  0  0  0
   -7.9140    7.1597    0.0000 C   0  0  0  0  0  0  0  0  0  0  0  0
   -8.6640    8.4587    0.0000 C   0  0  0  0  0  0  0  0  0  0  0  0
  -10.1640    8.4587    0.0000 C   0  0  0  0  0  0  0  0  0  0  0  0
  -10.9140    7.1597    0.0000 C   0  0  0  0  0  0  0  0  0  0  0  0
  -10.1640    5.8606    0.0000 C   0  0  0  0  0  0  0  0  0  0  0  0
   -5.6640    3.2626    0.0000 N   0  0  0  0  0  0  0  0  0  0  0  0
   -4.1640    3.2626    0.0000 C   0  0  0  0  0  0  0  0  0  0  0  0
   -3.4140    4.5616    0.0000 O   0  0  0  0  0  0  0  0  0  0  0  0
   -3.4140    1.9635    0.0000 O   0  0  0  0  0  0  0  0  0  0  0  0
   -4.1640    0.6645    0.0000 C   0  0  0  0  0  0  0  0  0  0  0  0
   -5.6557    0.5077    0.0000 C   0  0  0  0  0  0  0  0  0  0  0  0
   -5.9676   -0.9595    0.0000 O   0  0  0  0  0  0  0  0  0  0  0  0
   -4.6686   -1.7095    0.0000 C   0  0  0  0  0  0  0  0  0  0  0  0
   -4.0585   -3.0798    0.0000 O   0  0  0  0  0  0  0  0  0  0  0  0
   -2.5667   -2.9231    0.0000 C   0  0  0  0  0  0  0  0  0  0  0  0
   -2.2548   -1.4558    0.0000 C   0  0  0  0  0  0  0  0  0  0  0  0
   -3.5539   -0.7058    0.0000 C   0  0  0  0  0  0  0  0  0  0  0  0
    2.5860    7.1597    0.0000 S   0  0  0  0  0  0  0  0  0  0  0  0
    2.5860    8.6597    0.0000 O   0  0  0  0  0  0  0  0  0  0  0  0
    2.5860    5.6597    0.0000 O   0  0  0  0  0  0  0  0  0  0  0  0
    4.0860    7.1597    0.0000 C   0  0  0  0  0  0  0  0  0  0  0  0
    4.8360    8.4587    0.0000 C   0  0  0  0  0  0  0  0  0  0  0  0
    6.3360    8.4587    0.0000 C   0  0  0  0  0  0  0  0  0  0  0  0
    7.0860    7.1597    0.0000 C   0  0  0  0  0  0  0  0  0  0  0  0
    8.5860    7.1597    0.0000 N   0  0  0  0  0  0  0  0  0  0  0  0
    9.3360    8.4587    0.0000 C   0  0  0  0  0  0  0  0  0  0  0  0
    8.5860    9.7578    0.0000 O   0  0  0  0  0  0  0  0  0  0  0  0
   10.8360    8.4587    0.0000 C   0  0  0  0  0  0  0  0  0  0  0  0
   11.5860    7.1597    0.0000 O   0  0  0  0  0  0  0  0  0  0  0  0
   11.5860    9.7578    0.0000 C   0  0  0  0  0  0  0  0  0  0  0  0
   13.0860    9.7578    0.0000 C   0  0  0  0  0  0  0  0  0  0  0  0
   13.8360   11.0568    0.0000 C   0  0  0  0  0  0  0  0  0  0  0  0
   13.0860   12.3558    0.0000 C   0  0  0  0  0  0  0  0  0  0  0  0
   13.8360   13.6549    0.0000 C   0  0  0  0  0  0  0  0  0  0  0  0
   15.3360   13.6549    0.0000 C   0  0  0  0  0  0  0  0  0  0  0  0
   16.0860   12.3558    0.0000 C   0  0  0  0  0  0  0  0  0  0  0  0
   15.3360   11.0568    0.0000 C   0  0  0  0  0  0  0  0  0  0  0  0
   10.8360   11.0568    0.0000 C   0  0  0  0  0  0  0  0  0  0  0  0
    9.3360   11.0568    0.0000 O   0  0  0  0  0  0  0  0  0  0  0  0
   11.5860   12.3558    0.0000 O   0  0  0  0  0  0  0  0  0  0  0  0
    6.3360    5.8606    0.0000 C   0  0  0  0  0  0  0  0  0  0  0  0
    4.8360    5.8606    0.0000 C   0  0  0  0  0  0  0  0  0  0  0  0
  1  2  1  0
  2  3  1  0
  2  4  1  0
  4  5  1  0
  5  6  1  0
  6  7  1  0
  7  8  1  0
  7  9  1  0
  9 10  1  0
 10 11  1  0
 11 12  2  0
 12 13  1  0
 13 14  2  0
 14 15  1  0
 15 16  2  0
  9 17  1  0
 17 18  1  0
 18 19  2  0
 18 20  1  0
 20 21  1  0
 21 22  1  0
 22 23  2  0
 23 24  1  0
 24 25  2  0
 25 26  1  0
 26 27  2  0
 20 28  1  0
 28 29  1  0
 29 30  2  0
 29 31  1  0
 31 32  1  0
 32 33  1  0
 33 34  2  0
 34 35  1  0
 35 36  2  0
 36 37  1  0
 37 38  2  0
 31 39  1  0
 39 40  1  0
 40 41  2  0
 40 42  1  0
 42 43  1  0
 43 44  1  0
 44 45  1  0
 45 46  1  0
 46 47  1  0
 47 48  1  0
 48 49  1  0
 49 50  1  0
  5 51  1  0
 51 52  2  0
 51 53  2  0
 51 54  1  0
 54 55  2  0
 55 56  1  0
 56 57  2  0
 57 58  1  0
 58 59  1  0
 59 60  2  0
 59 61  1  0
 61 62  1  0
 61 63  1  0
 63 64  1  0
 64 65  1  0
 65 66  2  0
 66 67  1  0
 67 68  2  0
 68 69  1  0
 69 70  2  0
 63 71  1  0
 71 72  2  0
 71 73  1  0
 57 74  1  0
 74 75  2  0
 16 11  1  0
 27 22  1  0
 38 33  1  0
 50 43  1  0
 75 54  1  0
 50 46  1  0
 70 65  1  0
M  END
>  <Title>  (48) 
idAABVgen4

$$$$

     RDKit          2D

 69 75  0  0  0  0  0  0  0  0999 V2000
   -3.4140    1.9635    0.0000 C   0  0  0  0  0  0  0  0  0  0  0  0
   -1.9140    1.9635    0.0000 C   0  0  0  0  0  0  0  0  0  0  0  0
   -1.1640    0.6645    0.0000 C   0  0  0  0  0  0  0  0  0  0  0  0
   -1.1640    3.2626    0.0000 C   0  0  0  0  0  0  0  0  0  0  0  0
    0.3360    3.2626    0.0000 N   0  0  0  0  0  0  0  0  0  0  0  0
    1.0860    4.5616    0.0000 C   0  0  0  0  0  0  0  0  0  0  0  0
    0.3360    5.8606    0.0000 C   0  0  0  0  0  0  0  0  0  0  0  0
   -1.1640    5.8606    0.0000 O   0  0  0  0  0  0  0  0  0  0  0  0
    1.0860    7.1597    0.0000 C   0  0  0  0  0  0  0  0  0  0  0  0
    2.5860    7.1597    0.0000 C   0  0  0  0  0  0  0  0  0  0  0  0
    3.3360    5.8606    0.0000 C   0  0  0  0  0  0  0  0  0  0  0  0
    2.5860    4.5616    0.0000 C   0  0  0  0  0  0  0  0  0  0  0  0
    3.3360    3.2626    0.0000 C   0  0  0  0  0  0  0  0  0  0  0  0
    4.8360    3.2626    0.0000 C   0  0  0  0  0  0  0  0  0  0  0  0
    5.5860    4.5616    0.0000 C   0  0  0  0  0  0  0  0  0  0  0  0
    4.8360    5.8606    0.0000 C   0  0  0  0  0  0  0  0  0  0  0  0
    0.3360    8.4587    0.0000 N   0  0  0  0  0  0  0  0  0  0  0  0
   -1.1640    8.4587    0.0000 C   0  0  0  0  0  0  0  0  0  0  0  0
   -1.9140    7.1597    0.0000 O   0  0  0  0  0  0  0  0  0  0  0  0
   -1.9140    9.7578    0.0000 C   0  0  0  0  0  0  0  0  0  0  0  0
   -1.1640   11.0568    0.0000 C   0  0  0  0  0  0  0  0  0  0  0  0
    0.3360   11.0568    0.0000 C   0  0  0  0  0  0  0  0  0  0  0  0
    1.2177   12.2703    0.0000 C   0  0  0  0  0  0  0  0  0  0  0  0
    2.6443   11.8068    0.0000 C   0  0  0  0  0  0  0  0  0  0  0  0
    2.6443   10.3068    0.0000 C   0  0  0  0  0  0  0  0  0  0  0  0
    1.2177    9.8433    0.0000 C   0  0  0  0  0  0  0  0  0  0  0  0
   -3.4140    9.7578    0.0000 N   0  0  0  0  0  0  0  0  0  0  0  0
   -4.1640    8.4587    0.0000 C   0  0  0  0  0  0  0  0  0  0  0  0
   -3.4140    7.1597    0.0000 O   0  0  0  0  0  0  0  0  0  0  0  0
   -5.6640    8.4587    0.0000 C   0  0  0  0  0  0  0  0  0  0  0  0
   -6.4140    9.7578    0.0000 C   0  0  0  0  0  0  0  0  0  0  0  0
   -5.6640   11.0568    0.0000 C   0  0  0  0  0  0  0  0  0  0  0  0
   -4.1640   11.0568    0.0000 C   0  0  0  0  0  0  0  0  0  0  0  0
   -3.4140   12.3558    0.0000 C   0  0  0  0  0  0  0  0  0  0  0  0
   -4.1640   13.6549    0.0000 C   0  0  0  0  0  0  0  0  0  0  0  0
   -5.6640   13.6549    0.0000 C   0  0  0  0  0  0  0  0  0  0  0  0
   -6.4140   12.3558    0.0000 C   0  0  0  0  0  0  0  0  0  0  0  0
   -6.4140    7.1597    0.0000 N   0  0  0  0  0  0  0  0  0  0  0  0
   -7.9140    7.1597    0.0000 C   0  0  0  0  0  0  0  0  0  0  0  0
   -8.6640    8.4587    0.0000 O   0  0  0  0  0  0  0  0  0  0  0  0
   -8.6640    5.8606    0.0000 C   0  0  0  0  0  0  0  0  0  0  0  0
   -7.9140    4.5616    0.0000 C   0  0  0  0  0  0  0  0  0  0  0  0
   -6.4140    4.5616    0.0000 C   0  0  0  0  0  0  0  0  0  0  0  0
   -5.6640    5.8606    0.0000 C   0  0  0  0  0  0  0  0  0  0  0  0
   -4.1640    5.8606    0.0000 C   0  0  0  0  0  0  0  0  0  0  0  0
   -3.4140    4.5616    0.0000 C   0  0  0  0  0  0  0  0  0  0  0  0
   -4.1640    3.2626    0.0000 C   0  0  0  0  0  0  0  0  0  0  0  0
   -5.6640    3.2626    0.0000 C   0  0  0  0  0  0  0  0  0  0  0  0
  -10.1640    5.8606    0.0000 N   0  0  0  0  0  0  0  0  0  0  0  0
  -10.9140    7.1597    0.0000 C   0  0  0  0  0  0  0  0  0  0  0  0
  -10.1640    8.4587    0.0000 O   0  0  0  0  0  0  0  0  0  0  0  0
  -12.4140    7.1597    0.0000 O   0  0  0  0  0  0  0  0  0  0  0  0
  -13.1640    5.8606    0.0000 C   0  0  0  0  0  0  0  0  0  0  0  0
  -12.5539    4.4903    0.0000 C   0  0  0  0  0  0  0  0  0  0  0  0
  -13.6686    3.4866    0.0000 O   0  0  0  0  0  0  0  0  0  0  0  0
  -14.9676    4.2366    0.0000 C   0  0  0  0  0  0  0  0  0  0  0  0
  -16.4594    4.0798    0.0000 O   0  0  0  0  0  0  0  0  0  0  0  0
  -17.0695    5.4502    0.0000 C   0  0  0  0  0  0  0  0  0  0  0  0
  -15.9548    6.4538    0.0000 C   0  0  0  0  0  0  0  0  0  0  0  0
  -14.6557    5.7038    0.0000 C   0  0  0  0  0  0  0  0  0  0  0  0
    1.0860    1.9635    0.0000 S   0  0  0  0  0  0  0  0  0  0  0  0
   -0.2130    1.2135    0.0000 O   0  0  0  0  0  0  0  0  0  0  0  0
    2.3851    2.7135    0.0000 O   0  0  0  0  0  0  0  0  0  0  0  0
    1.8360    0.6645    0.0000 C   0  0  0  0  0  0  0  0  0  0  0  0
    3.3360    0.6645    0.0000 C   0  0  0  0  0  0  0  0  0  0  0  0
    4.0860   -0.6346    0.0000 C   0  0  0  0  0  0  0  0  0  0  0  0
    3.3360   -1.9336    0.0000 C   0  0  0  0  0  0  0  0  0  0  0  0
    1.8360   -1.9336    0.0000 C   0  0  0  0  0  0  0  0  0  0  0  0
    1.0860   -0.6346    0.0000 C   0  0  0  0  0  0  0  0  0  0  0  0
  1  2  1  0
  2  3  1  0
  2  4  1  0
  4  5  1  0
  5  6  1  0
  6  7  1  0
  7  8  1  0
  7  9  1  0
  9 10  1  0
 10 11  1  0
 11 12  2  0
 12 13  1  0
 13 14  2  0
 14 15  1  0
 15 16  2  0
  9 17  1  0
 17 18  1  0
 18 19  2  0
 18 20  1  0
 20 21  1  0
 21 22  1  0
 22 23  1  0
 23 24  1  0
 24 25  1  0
 25 26  1  0
 20 27  1  0
 27 28  1  0
 28 29  2  0
 28 30  1  0
 30 31  1  0
 31 32  1  0
 32 33  2  0
 33 34  1  0
 34 35  2  0
 35 36  1  0
 36 37  2  0
 30 38  1  0
 38 39  1  0
 39 40  2  0
 39 41  1  0
 41 42  1  0
 42 43  1  0
 43 44  2  0
 44 45  1  0
 45 46  2  0
 46 47  1  0
 47 48  2  0
 41 49  1  0
 49 50  1  0
 50 51  2  0
 50 52  1  0
 52 53  1  0
 53 54  1  0
 54 55  1  0
 55 56  1  0
 56 57  1  0
 57 58  1  0
 58 59  1  0
 59 60  1  0
  5 61  1  0
 61 62  2  0
 61 63  2  0
 61 64  1  0
 64 65  2  0
 65 66  1  0
 66 67  2  0
 67 68  1  0
 68 69  2  0
 16 11  1  0
 26 22  1  0
 37 32  1  0
 48 43  1  0
 60 53  1  0
 69 64  1  0
 60 56  1  0
M  END
>  <Title>  (49) 
idAABWgen4

$$$$

     RDKit          2D

 47 50  0  0  0  0  0  0  0  0999 V2000
   -4.9620    1.1000    0.0000 C   0  0  0  0  0  0  0  0  0  0  0  0
   -3.9583   -0.0147    0.0000 C   0  0  0  0  0  0  0  0  0  0  0  0
   -2.4911    0.2971    0.0000 C   0  0  0  0  0  0  0  0  0  0  0  0
   -4.4218   -1.4413    0.0000 N   0  0  0  0  0  0  0  0  0  0  0  0
   -3.4182   -2.5560    0.0000 C   0  0  0  0  0  0  0  0  0  0  0  0
   -1.9509   -2.2442    0.0000 O   0  0  0  0  0  0  0  0  0  0  0  0
   -3.8817   -3.9826    0.0000 C   0  0  0  0  0  0  0  0  0  0  0  0
   -5.3083   -4.4462    0.0000 C   0  0  0  0  0  0  0  0  0  0  0  0
   -5.3083   -5.9462    0.0000 C   0  0  0  0  0  0  0  0  0  0  0  0
   -3.8817   -6.4097    0.0000 C   0  0  0  0  0  0  0  0  0  0  0  0
   -3.0000   -5.1962    0.0000 C   0  0  0  0  0  0  0  0  0  0  0  0
   -1.5000   -5.1962    0.0000 C   0  0  0  0  0  0  0  0  0  0  0  0
   -0.7500   -6.4952    0.0000 O   0  0  0  0  0  0  0  0  0  0  0  0
   -0.7500   -3.8971    0.0000 N   0  0  0  0  0  0  0  0  0  0  0  0
    0.7500   -3.8971    0.0000 C   0  0  0  0  0  0  0  0  0  0  0  0
    1.5000   -2.5981    0.0000 C   0  0  0  0  0  0  0  0  0  0  0  0
    0.7500   -1.2990    0.0000 C   0  0  0  0  0  0  0  0  0  0  0  0
    1.5000    0.0000    0.0000 C   0  0  0  0  0  0  0  0  0  0  0  0
    0.7500    1.2990    0.0000 C   0  0  0  0  0  0  0  0  0  0  0  0
   -0.7500    1.2990    0.0000 C   0  0  0  0  0  0  0  0  0  0  0  0
   -1.5000    0.0000    0.0000 C   0  0  0  0  0  0  0  0  0  0  0  0
   -0.7500   -1.2990    0.0000 C   0  0  0  0  0  0  0  0  0  0  0  0
    1.5000   -5.1962    0.0000 C   0  0  0  0  0  0  0  0  0  0  0  0
    3.0000   -5.1962    0.0000 O   0  0  0  0  0  0  0  0  0  0  0  0
    0.7500   -6.4952    0.0000 N   0  0  0  0  0  0  0  0  0  0  0  0
    1.5000   -7.7942    0.0000 C   0  0  0  0  0  0  0  0  0  0  0  0
    0.7500   -9.0933    0.0000 C   0  0  0  0  0  0  0  0  0  0  0  0
    1.5000  -10.3923    0.0000 C   0  0  0  0  0  0  0  0  0  0  0  0
    0.7500  -11.6913    0.0000 C   0  0  0  0  0  0  0  0  0  0  0  0
    1.5000  -12.9904    0.0000 C   0  0  0  0  0  0  0  0  0  0  0  0
    3.0000  -12.9904    0.0000 C   0  0  0  0  0  0  0  0  0  0  0  0
    3.7500  -11.6913    0.0000 C   0  0  0  0  0  0  0  0  0  0  0  0
    3.0000  -10.3923    0.0000 C   0  0  0  0  0  0  0  0  0  0  0  0
    3.0000   -7.7942    0.0000 C   0  0  0  0  0  0  0  0  0  0  0  0
    3.7500   -6.4952    0.0000 O   0  0  0  0  0  0  0  0  0  0  0  0
    3.7500   -9.0933    0.0000 N   0  0  0  0  0  0  0  0  0  0  0  0
    5.2500   -9.0933    0.0000 C   0  0  0  0  0  0  0  0  0  0  0  0
    6.0000  -10.3923    0.0000 C   0  0  0  0  0  0  0  0  0  0  0  0
    7.5000  -10.3923    0.0000 C   0  0  0  0  0  0  0  0  0  0  0  0
    8.2500  -11.6913    0.0000 C   0  0  0  0  0  0  0  0  0  0  0  0
    9.7500  -11.6913    0.0000 C   0  0  0  0  0  0  0  0  0  0  0  0
   10.5000  -10.3923    0.0000 C   0  0  0  0  0  0  0  0  0  0  0  0
    9.7500   -9.0933    0.0000 C   0  0  0  0  0  0  0  0  0  0  0  0
    8.2500   -9.0933    0.0000 C   0  0  0  0  0  0  0  0  0  0  0  0
    6.0000   -7.7942    0.0000 C   0  0  0  0  0  0  0  0  0  0  0  0
    5.2500   -6.4952    0.0000 O   0  0  0  0  0  0  0  0  0  0  0  0
    7.5000   -7.7942    0.0000 O   0  0  0  0  0  0  0  0  0  0  0  0
  1  2  1  0
  2  3  1  0
  2  4  1  0
  4  5  1  0
  5  6  2  0
  5  7  1  0
  7  8  1  0
  8  9  1  0
  9 10  1  0
 10 11  1  0
 11 12  1  0
 12 13  2  0
 12 14  1  0
 14 15  1  0
 15 16  1  0
 16 17  1  0
 17 18  2  0
 18 19  1  0
 19 20  2  0
 20 21  1  0
 21 22  2  0
 15 23  1  0
 23 24  2  0
 23 25  1  0
 25 26  1  0
 26 27  1  0
 27 28  1  0
 28 29  2  0
 29 30  1  0
 30 31  2  0
 31 32  1  0
 32 33  2  0
 26 34  1  0
 34 35  2  0
 34 36  1  0
 36 37  1  0
 37 38  1  0
 38 39  1  0
 39 40  2  0
 40 41  1  0
 41 42  2  0
 42 43  1  0
 43 44  2  0
 37 45  1  0
 45 46  2  0
 45 47  1  0
 11  7  1  0
 22 17  1  0
 33 28  1  0
 44 39  1  0
M  END
>  <Title>  (50) 
idAABXgen4

$$$$

     RDKit          2D

 35 37  0  0  0  0  0  0  0  0999 V2000
    3.0000    0.0000    0.0000 C   0  0  0  0  0  0  0  0  0  0  0  0
    1.5000    0.0000    0.0000 C   0  0  0  0  0  0  0  0  0  0  0  0
    0.7500   -1.2990    0.0000 C   0  0  0  0  0  0  0  0  0  0  0  0
   -0.7500   -1.2990    0.0000 C   0  0  0  0  0  0  0  0  0  0  0  0
   -1.5000    0.0000    0.0000 C   0  0  0  0  0  0  0  0  0  0  0  0
   -3.0000    0.0000    0.0000 C   0  0  0  0  0  0  0  0  0  0  0  0
   -3.7500    1.2990    0.0000 C   0  0  0  0  0  0  0  0  0  0  0  0
   -5.2500    1.2990    0.0000 C   0  0  0  0  0  0  0  0  0  0  0  0
   -6.0000    0.0000    0.0000 C   0  0  0  0  0  0  0  0  0  0  0  0
   -5.2500   -1.2990    0.0000 C   0  0  0  0  0  0  0  0  0  0  0  0
   -6.0000   -2.5981    0.0000 C   0  0  0  0  0  0  0  0  0  0  0  0
   -5.2500   -3.8971    0.0000 O   0  0  0  0  0  0  0  0  0  0  0  0
   -7.5000   -2.5981    0.0000 N   0  0  0  0  0  0  0  0  0  0  0  0
   -8.2500   -3.8971    0.0000 C   0  0  0  0  0  0  0  0  0  0  0  0
   -9.7500   -3.8971    0.0000 C   0  0  0  0  0  0  0  0  0  0  0  0
  -10.5000   -5.1962    0.0000 C   0  0  0  0  0  0  0  0  0  0  0  0
  -12.0000   -5.1962    0.0000 C   0  0  0  0  0  0  0  0  0  0  0  0
  -12.7500   -6.4952    0.0000 C   0  0  0  0  0  0  0  0  0  0  0  0
  -12.0000   -7.7942    0.0000 C   0  0  0  0  0  0  0  0  0  0  0  0
  -10.5000   -7.7942    0.0000 C   0  0  0  0  0  0  0  0  0  0  0  0
   -9.7500   -6.4952    0.0000 C   0  0  0  0  0  0  0  0  0  0  0  0
   -7.5000   -5.1962    0.0000 C   0  0  0  0  0  0  0  0  0  0  0  0
   -6.0000   -5.1962    0.0000 O   0  0  0  0  0  0  0  0  0  0  0  0
   -8.2500   -6.4952    0.0000 N   0  0  0  0  0  0  0  0  0  0  0  0
   -7.5000   -7.7942    0.0000 C   0  0  0  0  0  0  0  0  0  0  0  0
   -8.2500   -9.0933    0.0000 C   0  0  0  0  0  0  0  0  0  0  0  0
   -7.5000  -10.3923    0.0000 C   0  0  0  0  0  0  0  0  0  0  0  0
   -6.0000  -10.3923    0.0000 O   0  0  0  0  0  0  0  0  0  0  0  0
   -8.2500  -11.6913    0.0000 O   0  0  0  0  0  0  0  0  0  0  0  0
   -6.0000   -7.7942    0.0000 C   0  0  0  0  0  0  0  0  0  0  0  0
   -5.2500   -6.4952    0.0000 O   0  0  0  0  0  0  0  0  0  0  0  0
   -5.2500   -9.0933    0.0000 O   0  0  0  0  0  0  0  0  0  0  0  0
   -3.7500   -1.2990    0.0000 C   0  0  0  0  0  0  0  0  0  0  0  0
   -0.7500    1.2990    0.0000 C   0  0  0  0  0  0  0  0  0  0  0  0
    0.7500    1.2990    0.0000 C   0  0  0  0  0  0  0  0  0  0  0  0
  1  2  1  0
  2  3  2  0
  3  4  1  0
  4  5  2  0
  5  6  1  0
  6  7  2  0
  7  8  1  0
  8  9  2  0
  9 10  1  0
 10 11  1  0
 11 12  2  0
 11 13  1  0
 13 14  1  0
 14 15  1  0
 15 16  1  0
 16 17  2  0
 17 18  1  0
 18 19  2  0
 19 20  1  0
 20 21  2  0
 14 22  1  0
 22 23  2  0
 22 24  1  0
 24 25  1  0
 25 26  1  0
 26 27  1  0
 27 28  2  0
 27 29  1  0
 25 30  1  0
 30 31  2  0
 30 32  1  0
 10 33  2  0
  5 34  1  0
 34 35  2  0
 35  2  1  0
 33  6  1  0
 21 16  1  0
M  END
>  <Title>  (51) 
idAABYgen4

$$$$

     RDKit          2D

 76 82  0  0  0  0  0  0  0  0999 V2000
    4.6351    7.7087    0.0000 C   0  0  0  0  0  0  0  0  0  0  0  0
    3.3360    8.4587    0.0000 C   0  0  0  0  0  0  0  0  0  0  0  0
    2.0370    9.2087    0.0000 C   0  0  0  0  0  0  0  0  0  0  0  0
    4.0860    9.7578    0.0000 C   0  0  0  0  0  0  0  0  0  0  0  0
    2.5860    7.1597    0.0000 C   0  0  0  0  0  0  0  0  0  0  0  0
    1.0860    7.1597    0.0000 C   0  0  0  0  0  0  0  0  0  0  0  0
    0.3360    8.4587    0.0000 N   0  0  0  0  0  0  0  0  0  0  0  0
   -1.1640    8.4587    0.0000 C   0  0  0  0  0  0  0  0  0  0  0  0
   -1.9140    7.1597    0.0000 O   0  0  0  0  0  0  0  0  0  0  0  0
   -1.9140    9.7578    0.0000 C   0  0  0  0  0  0  0  0  0  0  0  0
   -1.1640   11.0568    0.0000 C   0  0  0  0  0  0  0  0  0  0  0  0
    0.3360   11.0568    0.0000 C   0  0  0  0  0  0  0  0  0  0  0  0
    1.0860    9.7578    0.0000 C   0  0  0  0  0  0  0  0  0  0  0  0
    2.5860    9.7578    0.0000 C   0  0  0  0  0  0  0  0  0  0  0  0
    3.3360   11.0568    0.0000 C   0  0  0  0  0  0  0  0  0  0  0  0
    2.5860   12.3558    0.0000 C   0  0  0  0  0  0  0  0  0  0  0  0
    1.0860   12.3558    0.0000 C   0  0  0  0  0  0  0  0  0  0  0  0
   -3.4140    9.7578    0.0000 N   0  0  0  0  0  0  0  0  0  0  0  0
   -4.1640    8.4587    0.0000 C   0  0  0  0  0  0  0  0  0  0  0  0
   -3.4140    7.1597    0.0000 O   0  0  0  0  0  0  0  0  0  0  0  0
   -5.6640    8.4587    0.0000 C   0  0  0  0  0  0  0  0  0  0  0  0
   -6.4140    9.7578    0.0000 C   0  0  0  0  0  0  0  0  0  0  0  0
   -5.6640   11.0568    0.0000 C   0  0  0  0  0  0  0  0  0  0  0  0
   -4.1640   11.0568    0.0000 C   0  0  0  0  0  0  0  0  0  0  0  0
   -3.4140   12.3558    0.0000 C   0  0  0  0  0  0  0  0  0  0  0  0
   -4.1640   13.6549    0.0000 C   0  0  0  0  0  0  0  0  0  0  0  0
   -5.6640   13.6549    0.0000 C   0  0  0  0  0  0  0  0  0  0  0  0
   -6.4140   12.3558    0.0000 C   0  0  0  0  0  0  0  0  0  0  0  0
   -6.4140    7.1597    0.0000 N   0  0  0  0  0  0  0  0  0  0  0  0
   -5.6640    5.8606    0.0000 C   0  0  0  0  0  0  0  0  0  0  0  0
   -4.1640    5.8606    0.0000 O   0  0  0  0  0  0  0  0  0  0  0  0
   -6.4140    4.5616    0.0000 C   0  0  0  0  0  0  0  0  0  0  0  0
   -7.9140    4.5616    0.0000 C   0  0  0  0  0  0  0  0  0  0  0  0
   -8.6640    5.8606    0.0000 C   0  0  0  0  0  0  0  0  0  0  0  0
   -7.9140    7.1597    0.0000 C   0  0  0  0  0  0  0  0  0  0  0  0
   -8.6640    8.4587    0.0000 C   0  0  0  0  0  0  0  0  0  0  0  0
  -10.1640    8.4587    0.0000 C   0  0  0  0  0  0  0  0  0  0  0  0
  -10.9140    7.1597    0.0000 C   0  0  0  0  0  0  0  0  0  0  0  0
  -10.1640    5.8606    0.0000 C   0  0  0  0  0  0  0  0  0  0  0  0
   -5.6640    3.2626    0.0000 N   0  0  0  0  0  0  0  0  0  0  0  0
   -4.1640    3.2626    0.0000 C   0  0  0  0  0  0  0  0  0  0  0  0
   -3.4140    4.5616    0.0000 O   0  0  0  0  0  0  0  0  0  0  0  0
   -3.4140    1.9635    0.0000 O   0  0  0  0  0  0  0  0  0  0  0  0
   -1.9140    1.9635    0.0000 C   0  0  0  0  0  0  0  0  0  0  0  0
   -1.0323    3.1771    0.0000 C   0  0  0  0  0  0  0  0  0  0  0  0
    0.3943    2.7135    0.0000 O   0  0  0  0  0  0  0  0  0  0  0  0
    0.3943    1.2135    0.0000 C   0  0  0  0  0  0  0  0  0  0  0  0
    1.2760    0.0000    0.0000 O   0  0  0  0  0  0  0  0  0  0  0  0
    0.3943   -1.2135    0.0000 C   0  0  0  0  0  0  0  0  0  0  0  0
   -1.0323   -0.7500    0.0000 C   0  0  0  0  0  0  0  0  0  0  0  0
   -1.0323    0.7500    0.0000 C   0  0  0  0  0  0  0  0  0  0  0  0
    0.3360    5.8606    0.0000 C   0  0  0  0  0  0  0  0  0  0  0  0
   -1.1640    5.8606    0.0000 O   0  0  0  0  0  0  0  0  0  0  0  0
    1.0860    4.5616    0.0000 N   0  0  0  0  0  0  0  0  0  0  0  0
    2.5860    4.5616    0.0000 C   0  0  0  0  0  0  0  0  0  0  0  0
    3.3360    5.8606    0.0000 C   0  0  0  0  0  0  0  0  0  0  0  0
    4.8360    5.8606    0.0000 C   0  0  0  0  0  0  0  0  0  0  0  0
    5.5860    4.5616    0.0000 C   0  0  0  0  0  0  0  0  0  0  0  0
    7.0860    4.5616    0.0000 C   0  0  0  0  0  0  0  0  0  0  0  0
    7.8360    5.8606    0.0000 C   0  0  0  0  0  0  0  0  0  0  0  0
    7.0860    7.1597    0.0000 C   0  0  0  0  0  0  0  0  0  0  0  0
    5.5860    7.1597    0.0000 C   0  0  0  0  0  0  0  0  0  0  0  0
    3.3360    3.2626    0.0000 C   0  0  0  0  0  0  0  0  0  0  0  0
    4.8360    3.2626    0.0000 O   0  0  0  0  0  0  0  0  0  0  0  0
    2.5860    1.9635    0.0000 N   0  0  0  0  0  0  0  0  0  0  0  0
    3.3360    0.6645    0.0000 C   0  0  0  0  0  0  0  0  0  0  0  0
    2.5860   -0.6346    0.0000 C   0  0  0  0  0  0  0  0  0  0  0  0
    3.3360   -1.9336    0.0000 C   0  0  0  0  0  0  0  0  0  0  0  0
    2.5860   -3.2326    0.0000 C   0  0  0  0  0  0  0  0  0  0  0  0
    3.3360   -4.5317    0.0000 C   0  0  0  0  0  0  0  0  0  0  0  0
    4.8360   -4.5317    0.0000 C   0  0  0  0  0  0  0  0  0  0  0  0
    5.5860   -3.2326    0.0000 C   0  0  0  0  0  0  0  0  0  0  0  0
    4.8360   -1.9336    0.0000 C   0  0  0  0  0  0  0  0  0  0  0  0
    4.8360    0.6645    0.0000 C   0  0  0  0  0  0  0  0  0  0  0  0
    5.5860    1.9635    0.0000 O   0  0  0  0  0  0  0  0  0  0  0  0
    5.5860   -0.6346    0.0000 O   0  0  0  0  0  0  0  0  0  0  0  0
  1  2  1  0
  2  3  1  0
  2  4  1  0
  2  5  1  0
  5  6  1  0
  6  7  1  0
  7  8  1  0
  8  9  2  0
  8 10  1  0
 10 11  1  0
 11 12  1  0
 12 13  2  0
 13 14  1  0
 14 15  2  0
 15 16  1  0
 16 17  2  0
 10 18  1  0
 18 19  1  0
 19 20  2  0
 19 21  1  0
 21 22  1  0
 22 23  1  0
 23 24  2  0
 24 25  1  0
 25 26  2  0
 26 27  1  0
 27 28  2  0
 21 29  1  0
 29 30  1  0
 30 31  2  0
 30 32  1  0
 32 33  1  0
 33 34  1  0
 34 35  2  0
 35 36  1  0
 36 37  2  0
 37 38  1  0
 38 39  2  0
 32 40  1  0
 40 41  1  0
 41 42  2  0
 41 43  1  0
 43 44  1  0
 44 45  1  0
 45 46  1  0
 46 47  1  0
 47 48  1  0
 48 49  1  0
 49 50  1  0
 50 51  1  0
  6 52  1  0
 52 53  2  0
 52 54  1  0
 54 55  1  0
 55 56  1  0
 56 57  1  0
 57 58  2  0
 58 59  1  0
 59 60  2  0
 60 61  1  0
 61 62  2  0
 55 63  1  0
 63 64  2  0
 63 65  1  0
 65 66  1  0
 66 67  1  0
 67 68  1  0
 68 69  2  0
 69 70  1  0
 70 71  2  0
 71 72  1  0
 72 73  2  0
 66 74  1  0
 74 75  2  0
 74 76  1  0
 17 12  1  0
 28 23  1  0
 39 34  1  0
 51 44  1  0
 62 57  1  0
 73 68  1  0
 51 47  1  0
M  END
>  <Title>  (52) 
idAABZgen4

$$$$

     RDKit          2D

 69 75  0  0  0  0  0  0  0  0999 V2000
  -10.1640   16.2529    0.0000 C   0  0  0  0  0  0  0  0  0  0  0  0
   -8.6640   16.2529    0.0000 C   0  0  0  0  0  0  0  0  0  0  0  0
   -7.9140   17.5520    0.0000 C   0  0  0  0  0  0  0  0  0  0  0  0
   -7.9140   14.9539    0.0000 C   0  0  0  0  0  0  0  0  0  0  0  0
   -8.6640   13.6549    0.0000 N   0  0  0  0  0  0  0  0  0  0  0  0
  -10.1640   13.6549    0.0000 S   0  0  0  0  0  0  0  0  0  0  0  0
  -10.1640   15.1549    0.0000 O   0  0  0  0  0  0  0  0  0  0  0  0
  -10.1640   12.1549    0.0000 O   0  0  0  0  0  0  0  0  0  0  0  0
  -11.6640   13.6549    0.0000 C   0  0  0  0  0  0  0  0  0  0  0  0
  -12.4140   14.9539    0.0000 C   0  0  0  0  0  0  0  0  0  0  0  0
  -13.9140   14.9539    0.0000 C   0  0  0  0  0  0  0  0  0  0  0  0
  -14.6640   13.6549    0.0000 C   0  0  0  0  0  0  0  0  0  0  0  0
  -13.9140   12.3558    0.0000 C   0  0  0  0  0  0  0  0  0  0  0  0
  -12.4140   12.3558    0.0000 C   0  0  0  0  0  0  0  0  0  0  0  0
   -6.4140   14.9539    0.0000 C   0  0  0  0  0  0  0  0  0  0  0  0
   -6.1943   15.7202    0.0000 O   0  0  0  0  0  0  0  0  0  0  0  0
   -5.6640   13.6549    0.0000 N   0  0  0  0  0  0  0  0  0  0  0  0
   -4.1640   13.6549    0.0000 C   0  0  0  0  0  0  0  0  0  0  0  0
   -3.4140   14.9539    0.0000 C   0  0  0  0  0  0  0  0  0  0  0  0
   -4.1640   16.2529    0.0000 C   0  0  0  0  0  0  0  0  0  0  0  0
   -3.4140   17.5520    0.0000 C   0  0  0  0  0  0  0  0  0  0  0  0
   -4.1640   18.8510    0.0000 C   0  0  0  0  0  0  0  0  0  0  0  0
   -5.6640   18.8510    0.0000 C   0  0  0  0  0  0  0  0  0  0  0  0
   -6.4140   17.5520    0.0000 C   0  0  0  0  0  0  0  0  0  0  0  0
   -5.6640   16.2529    0.0000 C   0  0  0  0  0  0  0  0  0  0  0  0
   -3.4140   12.3558    0.0000 C   0  0  0  0  0  0  0  0  0  0  0  0
   -1.9585   12.7188    0.0000 O   0  0  0  0  0  0  0  0  0  0  0  0
   -4.1640   11.0568    0.0000 C   0  0  0  0  0  0  0  0  0  0  0  0
   -3.4140    9.7578    0.0000 N   0  0  0  0  0  0  0  0  0  0  0  0
   -1.9140    9.7578    0.0000 C   0  0  0  0  0  0  0  0  0  0  0  0
   -1.1640   11.0568    0.0000 C   0  0  0  0  0  0  0  0  0  0  0  0
    0.3360   11.0568    0.0000 C   0  0  0  0  0  0  0  0  0  0  0  0
    1.0860   12.3558    0.0000 C   0  0  0  0  0  0  0  0  0  0  0  0
    0.3360   13.6549    0.0000 C   0  0  0  0  0  0  0  0  0  0  0  0
   -1.1640   13.6549    0.0000 C   0  0  0  0  0  0  0  0  0  0  0  0
   -1.9140   12.3558    0.0000 C   0  0  0  0  0  0  0  0  0  0  0  0
   -4.1640    8.4587    0.0000 C   0  0  0  0  0  0  0  0  0  0  0  0
   -3.4140    7.1597    0.0000 O   0  0  0  0  0  0  0  0  0  0  0  0
   -5.6640    8.4587    0.0000 C   0  0  0  0  0  0  0  0  0  0  0  0
   -6.4140    9.7578    0.0000 C   0  0  0  0  0  0  0  0  0  0  0  0
   -5.6640   11.0568    0.0000 C   0  0  0  0  0  0  0  0  0  0  0  0
   -4.1640   11.0568    0.0000 C   0  0  0  0  0  0  0  0  0  0  0  0
   -3.4140   12.3558    0.0000 C   0  0  0  0  0  0  0  0  0  0  0  0
   -4.1640   13.6549    0.0000 C   0  0  0  0  0  0  0  0  0  0  0  0
   -5.6640   13.6549    0.0000 C   0  0  0  0  0  0  0  0  0  0  0  0
   -6.4140   12.3558    0.0000 C   0  0  0  0  0  0  0  0  0  0  0  0
   -6.4140    7.1597    0.0000 N   0  0  0  0  0  0  0  0  0  0  0  0
   -5.6640    5.8606    0.0000 C   0  0  0  0  0  0  0  0  0  0  0  0
   -4.1640    5.8606    0.0000 O   0  0  0  0  0  0  0  0  0  0  0  0
   -6.4140    4.5616    0.0000 C   0  0  0  0  0  0  0  0  0  0  0  0
   -7.9140    4.5616    0.0000 C   0  0  0  0  0  0  0  0  0  0  0  0
   -8.6640    5.8606    0.0000 C   0  0  0  0  0  0  0  0  0  0  0  0
   -7.9140    7.1597    0.0000 C   0  0  0  0  0  0  0  0  0  0  0  0
   -8.6640    8.4587    0.0000 C   0  0  0  0  0  0  0  0  0  0  0  0
  -10.1640    8.4587    0.0000 C   0  0  0  0  0  0  0  0  0  0  0  0
  -10.9140    7.1597    0.0000 C   0  0  0  0  0  0  0  0  0  0  0  0
  -10.1640    5.8606    0.0000 C   0  0  0  0  0  0  0  0  0  0  0  0
   -5.6640    3.2626    0.0000 N   0  0  0  0  0  0  0  0  0  0  0  0
   -4.1640    3.2626    0.0000 C   0  0  0  0  0  0  0  0  0  0  0  0
   -3.4140    4.5616    0.0000 O   0  0  0  0  0  0  0  0  0  0  0  0
   -3.4140    1.9635    0.0000 O   0  0  0  0  0  0  0  0  0  0  0  0
   -1.9140    1.9635    0.0000 C   0  0  0  0  0  0  0  0  0  0  0  0
   -1.0323    3.1771    0.0000 C   0  0  0  0  0  0  0  0  0  0  0  0
    0.3943    2.7135    0.0000 O   0  0  0  0  0  0  0  0  0  0  0  0
    0.3943    1.2135    0.0000 C   0  0  0  0  0  0  0  0  0  0  0  0
    1.2760    0.0000    0.0000 O   0  0  0  0  0  0  0  0  0  0  0  0
    0.3943   -1.2135    0.0000 C   0  0  0  0  0  0  0  0  0  0  0  0
   -1.0323   -0.7500    0.0000 C   0  0  0  0  0  0  0  0  0  0  0  0
   -1.0323    0.7500    0.0000 C   0  0  0  0  0  0  0  0  0  0  0  0
  1  2  1  0
  2  3  1  0
  2  4  1  0
  4  5  1  0
  5  6  1  0
  6  7  2  0
  6  8  2  0
  6  9  1  0
  9 10  2  0
 10 11  1  0
 11 12  2  0
 12 13  1  0
 13 14  2  0
  4 15  1  0
 15 16  2  0
 15 17  1  0
 17 18  1  0
 18 19  1  0
 19 20  1  0
 20 21  2  0
 21 22  1  0
 22 23  2  0
 23 24  1  0
 24 25  2  0
 18 26  1  0
 26 27  1  0
 26 28  1  0
 28 29  1  0
 29 30  1  0
 30 31  1  0
 31 32  2  0
 32 33  1  0
 33 34  2  0
 34 35  1  0
 35 36  2  0
 29 37  1  0
 37 38  2  0
 37 39  1  0
 39 40  1  0
 40 41  1  0
 41 42  2  0
 42 43  1  0
 43 44  2  0
 44 45  1  0
 45 46  2  0
 39 47  1  0
 47 48  1  0
 48 49  2  0
 48 50  1  0
 50 51  1  0
 51 52  1  0
 52 53  2  0
 53 54  1  0
 54 55  2  0
 55 56  1  0
 56 57  2  0
 50 58  1  0
 58 59  1  0
 59 60  2  0
 59 61  1  0
 61 62  1  0
 62 63  1  0
 63 64  1  0
 64 65  1  0
 65 66  1  0
 66 67  1  0
 67 68  1  0
 68 69  1  0
 14  9  1  0
 25 20  1  0
 36 31  1  0
 46 41  1  0
 57 52  1  0
 69 62  1  0
 69 65  1  0
M  END
>  <Title>  (53) 
idAACAgen4

$$$$

     RDKit          2D

 20 23  0  0  0  0  0  0  0  0999 V2000
   -0.7500   -3.8971    0.0000 O   0  0  0  0  0  0  0  0  0  0  0  0
    0.7500   -3.8971    0.0000 C   0  0  0  0  0  0  0  0  0  0  0  0
    1.5000   -2.5981    0.0000 C   0  0  0  0  0  0  0  0  0  0  0  0
    0.7500   -1.2990    0.0000 C   0  0  0  0  0  0  0  0  0  0  0  0
    1.5000    0.0000    0.0000 C   0  0  0  0  0  0  0  0  0  0  0  0
    0.7500    1.2990    0.0000 C   0  0  0  0  0  0  0  0  0  0  0  0
   -0.7500    1.2990    0.0000 C   0  0  0  0  0  0  0  0  0  0  0  0
   -1.5000    0.0000    0.0000 C   0  0  0  0  0  0  0  0  0  0  0  0
    1.7010   -0.7500    0.0000 C   0  0  0  0  0  0  0  0  0  0  0  0
    3.0000   -0.0000    0.0000 C   0  0  0  0  0  0  0  0  0  0  0  0
    2.2500    1.2990    0.0000 C   0  0  0  0  0  0  0  0  0  0  0  0
    2.2500   -1.2990    0.0000 C   0  0  0  0  0  0  0  0  0  0  0  0
   -0.7500   -1.2990    0.0000 C   0  0  0  0  0  0  0  0  0  0  0  0
    1.5000   -5.1962    0.0000 N   0  0  0  0  0  0  0  0  0  0  0  0
    0.7500   -6.4952    0.0000 C   0  0  0  0  0  0  0  0  0  0  0  0
   -0.7500   -6.4952    0.0000 C   0  0  0  0  0  0  0  0  0  0  0  0
   -1.5000   -7.7942    0.0000 C   0  0  0  0  0  0  0  0  0  0  0  0
   -0.7500   -9.0933    0.0000 C   0  0  0  0  0  0  0  0  0  0  0  0
    0.7500   -9.0933    0.0000 C   0  0  0  0  0  0  0  0  0  0  0  0
    1.5000   -7.7942    0.0000 C   0  0  0  0  0  0  0  0  0  0  0  0
  1  2  2  0
  2  3  1  0
  3  4  1  0
  4  5  1  0
  5  6  1  0
  6  7  1  0
  7  8  1  0
  8  9  1  0
  9 10  1  0
 10 11  1  0
 10 12  1  0
  8 13  1  0
  2 14  1  0
 14 15  1  0
 15 16  2  0
 16 17  1  0
 17 18  2  0
 18 19  1  0
 19 20  2  0
 12  4  1  0
 20 15  1  0
 13  4  1  0
 11  6  1  0
M  END
>  <Title>  (54) 
idAACBgen4

$$$$

     RDKit          2D

 33 35  0  0  0  0  0  0  0  0999 V2000
   -5.3849    0.4488    0.0000 C   0  0  0  0  0  0  0  0  0  0  0  0
   -3.9583   -0.0147    0.0000 C   0  0  0  0  0  0  0  0  0  0  0  0
   -2.5317   -0.4783    0.0000 C   0  0  0  0  0  0  0  0  0  0  0  0
   -3.4948    1.4118    0.0000 C   0  0  0  0  0  0  0  0  0  0  0  0
   -4.4218   -1.4413    0.0000 N   0  0  0  0  0  0  0  0  0  0  0  0
   -3.4182   -2.5560    0.0000 C   0  0  0  0  0  0  0  0  0  0  0  0
   -1.9509   -2.2442    0.0000 O   0  0  0  0  0  0  0  0  0  0  0  0
   -3.8817   -3.9826    0.0000 C   0  0  0  0  0  0  0  0  0  0  0  0
   -5.3083   -4.4462    0.0000 C   0  0  0  0  0  0  0  0  0  0  0  0
   -5.3083   -5.9462    0.0000 C   0  0  0  0  0  0  0  0  0  0  0  0
   -3.8817   -6.4097    0.0000 C   0  0  0  0  0  0  0  0  0  0  0  0
   -3.0000   -5.1962    0.0000 C   0  0  0  0  0  0  0  0  0  0  0  0
   -1.5000   -5.1962    0.0000 C   0  0  0  0  0  0  0  0  0  0  0  0
   -0.7500   -6.4952    0.0000 O   0  0  0  0  0  0  0  0  0  0  0  0
   -0.7500   -3.8971    0.0000 N   0  0  0  0  0  0  0  0  0  0  0  0
    0.7500   -3.8971    0.0000 C   0  0  0  0  0  0  0  0  0  0  0  0
    1.5000   -2.5981    0.0000 C   0  0  0  0  0  0  0  0  0  0  0  0
    0.7500   -1.2990    0.0000 C   0  0  0  0  0  0  0  0  0  0  0  0
    1.5000    0.0000    0.0000 C   0  0  0  0  0  0  0  0  0  0  0  0
    0.7500    1.2990    0.0000 C   0  0  0  0  0  0  0  0  0  0  0  0
   -0.7500    1.2990    0.0000 C   0  0  0  0  0  0  0  0  0  0  0  0
   -1.5000    0.0000    0.0000 C   0  0  0  0  0  0  0  0  0  0  0  0
   -0.7500   -1.2990    0.0000 C   0  0  0  0  0  0  0  0  0  0  0  0
    1.5000   -5.1962    0.0000 C   0  0  0  0  0  0  0  0  0  0  0  0
    3.0000   -5.1962    0.0000 O   0  0  0  0  0  0  0  0  0  0  0  0
    0.7500   -6.4952    0.0000 N   0  0  0  0  0  0  0  0  0  0  0  0
    1.5000   -7.7942    0.0000 C   0  0  0  0  0  0  0  0  0  0  0  0
    0.7500   -9.0933    0.0000 C   0  0  0  0  0  0  0  0  0  0  0  0
   -0.7500   -9.0933    0.0000 C   0  0  0  0  0  0  0  0  0  0  0  0
   -1.5000  -10.3923    0.0000 C   0  0  0  0  0  0  0  0  0  0  0  0
   -0.7500  -11.6913    0.0000 C   0  0  0  0  0  0  0  0  0  0  0  0
    0.7500  -11.6913    0.0000 C   0  0  0  0  0  0  0  0  0  0  0  0
    1.5000  -10.3923    0.0000 C   0  0  0  0  0  0  0  0  0  0  0  0
  1  2  1  0
  2  3  1  0
  2  4  1  0
  2  5  1  0
  5  6  1  0
  6  7  2  0
  6  8  1  0
  8  9  1  0
  9 10  1  0
 10 11  1  0
 11 12  1  0
 12 13  1  0
 13 14  2  0
 13 15  1  0
 15 16  1  0
 16 17  1  0
 17 18  1  0
 18 19  2  0
 19 20  1  0
 20 21  2  0
 21 22  1  0
 22 23  2  0
 16 24  1  0
 24 25  2  0
 24 26  1  0
 26 27  1  0
 27 28  1  0
 28 29  2  0
 29 30  1  0
 30 31  2  0
 31 32  1  0
 32 33  2  0
 12  8  1  0
 23 18  1  0
 33 28  1  0
M  END
>  <Title>  (55) 
idAACCgen4

$$$$

     RDKit          2D

 52 56  0  0  0  0  0  0  0  0999 V2000
   -1.4033    6.9044    0.0000 C   0  0  0  0  0  0  0  0  0  0  0  0
   -2.7242    6.1936    0.0000 C   0  0  0  0  0  0  0  0  0  0  0  0
   -4.0451    5.4828    0.0000 C   0  0  0  0  0  0  0  0  0  0  0  0
   -3.4350    7.5145    0.0000 C   0  0  0  0  0  0  0  0  0  0  0  0
   -2.0134    4.8727    0.0000 N   0  0  0  0  0  0  0  0  0  0  0  0
   -2.8019    3.5967    0.0000 C   0  0  0  0  0  0  0  0  0  0  0  0
   -4.3012    3.6416    0.0000 O   0  0  0  0  0  0  0  0  0  0  0  0
   -2.0911    2.2758    0.0000 C   0  0  0  0  0  0  0  0  0  0  0  0
   -0.5926    2.3431    0.0000 C   0  0  0  0  0  0  0  0  0  0  0  0
    0.3943    1.2135    0.0000 C   0  0  0  0  0  0  0  0  0  0  0  0
    1.2760    0.0000    0.0000 C   0  0  0  0  0  0  0  0  0  0  0  0
    0.3943   -1.2135    0.0000 C   0  0  0  0  0  0  0  0  0  0  0  0
   -1.0323   -0.7500    0.0000 C   0  0  0  0  0  0  0  0  0  0  0  0
   -2.5737   -0.3836    0.0000 C   0  0  0  0  0  0  0  0  0  0  0  0
   -2.9728    1.0623    0.0000 C   0  0  0  0  0  0  0  0  0  0  0  0
   -4.4487    1.3301    0.0000 C   0  0  0  0  0  0  0  0  0  0  0  0
   -4.9547    2.7422    0.0000 O   0  0  0  0  0  0  0  0  0  0  0  0
   -5.4186    0.1859    0.0000 N   0  0  0  0  0  0  0  0  0  0  0  0
   -6.8945    0.4537    0.0000 C   0  0  0  0  0  0  0  0  0  0  0  0
   -7.8644   -0.6905    0.0000 C   0  0  0  0  0  0  0  0  0  0  0  0
   -9.3403   -0.4227    0.0000 C   0  0  0  0  0  0  0  0  0  0  0  0
   -9.8463    0.9894    0.0000 C   0  0  0  0  0  0  0  0  0  0  0  0
  -11.3221    1.2572    0.0000 C   0  0  0  0  0  0  0  0  0  0  0  0
  -12.2920    0.1130    0.0000 C   0  0  0  0  0  0  0  0  0  0  0  0
  -11.7861   -1.2991    0.0000 C   0  0  0  0  0  0  0  0  0  0  0  0
  -10.3102   -1.5669    0.0000 C   0  0  0  0  0  0  0  0  0  0  0  0
   -7.4005    1.8658    0.0000 C   0  0  0  0  0  0  0  0  0  0  0  0
   -6.4306    3.0101    0.0000 O   0  0  0  0  0  0  0  0  0  0  0  0
   -8.8764    2.1337    0.0000 N   0  0  0  0  0  0  0  0  0  0  0  0
   -9.3823    3.5457    0.0000 C   0  0  0  0  0  0  0  0  0  0  0  0
  -10.8582    3.8136    0.0000 C   0  0  0  0  0  0  0  0  0  0  0  0
  -11.3642    5.2256    0.0000 C   0  0  0  0  0  0  0  0  0  0  0  0
  -10.3943    6.3699    0.0000 C   0  0  0  0  0  0  0  0  0  0  0  0
  -10.9003    7.7820    0.0000 C   0  0  0  0  0  0  0  0  0  0  0  0
  -12.3762    8.0498    0.0000 C   0  0  0  0  0  0  0  0  0  0  0  0
  -13.3461    6.9056    0.0000 C   0  0  0  0  0  0  0  0  0  0  0  0
  -12.8401    5.4935    0.0000 C   0  0  0  0  0  0  0  0  0  0  0  0
   -8.4125    4.6900    0.0000 C   0  0  0  0  0  0  0  0  0  0  0  0
   -6.9366    4.4221    0.0000 O   0  0  0  0  0  0  0  0  0  0  0  0
   -8.9184    6.1021    0.0000 O   0  0  0  0  0  0  0  0  0  0  0  0
   -1.0323    0.7500    0.0000 C   0  0  0  0  0  0  0  0  0  0  0  0
   -2.2458    1.6317    0.0000 C   0  0  0  0  0  0  0  0  0  0  0  0
   -2.0890    3.1235    0.0000 C   0  0  0  0  0  0  0  0  0  0  0  0
   -0.6546    3.5620    0.0000 O   0  0  0  0  0  0  0  0  0  0  0  0
   -3.3025    4.0051    0.0000 C   0  0  0  0  0  0  0  0  0  0  0  0
   -4.0525    2.7061    0.0000 C   0  0  0  0  0  0  0  0  0  0  0  0
   -4.6729    4.6152    0.0000 C   0  0  0  0  0  0  0  0  0  0  0  0
   -4.5161    6.1070    0.0000 C   0  0  0  0  0  0  0  0  0  0  0  0
   -3.0488    6.4189    0.0000 C   0  0  0  0  0  0  0  0  0  0  0  0
   -2.2988    5.1199    0.0000 C   0  0  0  0  0  0  0  0  0  0  0  0
   -1.0853    6.0015    0.0000 C   0  0  0  0  0  0  0  0  0  0  0  0
   -1.1668    4.1358    0.0000 C   0  0  0  0  0  0  0  0  0  0  0  0
  1  2  1  0
  2  3  1  0
  2  4  1  0
  2  5  1  0
  5  6  1  0
  6  7  2  0
  6  8  1  0
  8  9  1  0
  9 10  1  0
 10 11  1  0
 11 12  1  0
 12 13  1  0
 13 14  1  0
 14 15  1  0
 15 16  1  0
 16 17  2  0
 16 18  1  0
 18 19  1  0
 19 20  1  0
 20 21  1  0
 21 22  2  0
 22 23  1  0
 23 24  2  0
 24 25  1  0
 25 26  2  0
 19 27  1  0
 27 28  2  0
 27 29  1  0
 29 30  1  0
 30 31  1  0
 31 32  1  0
 32 33  2  0
 33 34  1  0
 34 35  2  0
 35 36  1  0
 36 37  2  0
 30 38  1  0
 38 39  2  0
 38 40  1  0
 13 41  1  0
 41 42  1  0
 42 43  1  0
 43 44  1  0
 43 45  1  0
 45 46  1  0
 45 47  1  0
 47 48  1  0
 48 49  1  0
 49 50  1  0
 50 51  1  0
 50 52  1  0
 15  8  1  0
 26 21  1  0
 37 32  1  0
 50 45  1  0
 41 10  1  0
M  END
>  <Title>  (56) 
idAACDgen4

$$$$

     RDKit          2D

 29 30  0  0  0  0  0  0  0  0999 V2000
    6.7500   -6.4952    0.0000 C   0  0  0  0  0  0  0  0  0  0  0  0
    6.0000   -5.1962    0.0000 C   0  0  0  0  0  0  0  0  0  0  0  0
    6.7500   -3.8971    0.0000 C   0  0  0  0  0  0  0  0  0  0  0  0
    4.5000   -5.1962    0.0000 C   0  0  0  0  0  0  0  0  0  0  0  0
    3.7500   -3.8971    0.0000 C   0  0  0  0  0  0  0  0  0  0  0  0
    2.2500   -3.8971    0.0000 N   0  0  0  0  0  0  0  0  0  0  0  0
    1.5000   -2.5981    0.0000 S   0  0  0  0  0  0  0  0  0  0  0  0
    0.2010   -3.3481    0.0000 O   0  0  0  0  0  0  0  0  0  0  0  0
    2.7990   -1.8481    0.0000 O   0  0  0  0  0  0  0  0  0  0  0  0
    0.7500   -1.2990    0.0000 C   0  0  0  0  0  0  0  0  0  0  0  0
    1.5000    0.0000    0.0000 C   0  0  0  0  0  0  0  0  0  0  0  0
    0.7500    1.2990    0.0000 C   0  0  0  0  0  0  0  0  0  0  0  0
   -0.7500    1.2990    0.0000 C   0  0  0  0  0  0  0  0  0  0  0  0
   -1.5000    0.0000    0.0000 C   0  0  0  0  0  0  0  0  0  0  0  0
   -0.7500   -1.2990    0.0000 C   0  0  0  0  0  0  0  0  0  0  0  0
    4.5000   -2.5981    0.0000 C   0  0  0  0  0  0  0  0  0  0  0  0
    3.7500   -1.2990    0.0000 O   0  0  0  0  0  0  0  0  0  0  0  0
    6.0000   -2.5981    0.0000 N   0  0  0  0  0  0  0  0  0  0  0  0
    6.7500   -1.2990    0.0000 C   0  0  0  0  0  0  0  0  0  0  0  0
    8.2500   -1.2990    0.0000 C   0  0  0  0  0  0  0  0  0  0  0  0
    9.0000   -0.0000    0.0000 C   0  0  0  0  0  0  0  0  0  0  0  0
   10.5000   -0.0000    0.0000 C   0  0  0  0  0  0  0  0  0  0  0  0
   11.2500    1.2990    0.0000 C   0  0  0  0  0  0  0  0  0  0  0  0
   10.5000    2.5981    0.0000 C   0  0  0  0  0  0  0  0  0  0  0  0
    9.0000    2.5981    0.0000 C   0  0  0  0  0  0  0  0  0  0  0  0
    8.2500    1.2990    0.0000 C   0  0  0  0  0  0  0  0  0  0  0  0
    6.0000   -0.0000    0.0000 C   0  0  0  0  0  0  0  0  0  0  0  0
    4.5000   -0.0000    0.0000 O   0  0  0  0  0  0  0  0  0  0  0  0
    6.7500    1.2990    0.0000 O   0  0  0  0  0  0  0  0  0  0  0  0
  1  2  1  0
  2  3  1  0
  2  4  1  0
  4  5  1  0
  5  6  1  0
  6  7  1  0
  7  8  2  0
  7  9  2  0
  7 10  1  0
 10 11  2  0
 11 12  1  0
 12 13  2  0
 13 14  1  0
 14 15  2  0
  5 16  1  0
 16 17  2  0
 16 18  1  0
 18 19  1  0
 19 20  1  0
 20 21  1  0
 21 22  2  0
 22 23  1  0
 23 24  2  0
 24 25  1  0
 25 26  2  0
 19 27  1  0
 27 28  2  0
 27 29  1  0
 15 10  1  0
 26 21  1  0
M  END
>  <Title>  (57) 
idAACEgen4

$$$$

     RDKit          2D

 57 62  0  0  0  0  0  0  0  0999 V2000
    0.3360    8.4587    0.0000 C   0  0  0  0  0  0  0  0  0  0  0  0
   -1.1640    8.4587    0.0000 C   0  0  0  0  0  0  0  0  0  0  0  0
   -1.9140    7.1597    0.0000 C   0  0  0  0  0  0  0  0  0  0  0  0
   -1.9140    9.7578    0.0000 C   0  0  0  0  0  0  0  0  0  0  0  0
   -3.4140    9.7578    0.0000 N   0  0  0  0  0  0  0  0  0  0  0  0
   -4.1640   11.0568    0.0000 C   0  0  0  0  0  0  0  0  0  0  0  0
   -3.4140   12.3558    0.0000 C   0  0  0  0  0  0  0  0  0  0  0  0
   -1.9140   12.3558    0.0000 O   0  0  0  0  0  0  0  0  0  0  0  0
   -4.1640   13.6549    0.0000 C   0  0  0  0  0  0  0  0  0  0  0  0
   -3.4140   14.9539    0.0000 C   0  0  0  0  0  0  0  0  0  0  0  0
   -1.9140   14.9539    0.0000 C   0  0  0  0  0  0  0  0  0  0  0  0
   -1.1640   16.2529    0.0000 C   0  0  0  0  0  0  0  0  0  0  0  0
    0.3360   16.2529    0.0000 C   0  0  0  0  0  0  0  0  0  0  0  0
    1.0860   14.9539    0.0000 C   0  0  0  0  0  0  0  0  0  0  0  0
    0.3360   13.6549    0.0000 C   0  0  0  0  0  0  0  0  0  0  0  0
   -1.1640   13.6549    0.0000 C   0  0  0  0  0  0  0  0  0  0  0  0
   -5.6640   13.6549    0.0000 N   0  0  0  0  0  0  0  0  0  0  0  0
   -6.4140   14.9539    0.0000 C   0  0  0  0  0  0  0  0  0  0  0  0
   -5.6640   16.2529    0.0000 O   0  0  0  0  0  0  0  0  0  0  0  0
   -7.9140   14.9539    0.0000 C   0  0  0  0  0  0  0  0  0  0  0  0
   -8.7956   13.7404    0.0000 C   0  0  0  0  0  0  0  0  0  0  0  0
  -10.2222   14.2039    0.0000 C   0  0  0  0  0  0  0  0  0  0  0  0
  -10.2222   15.7039    0.0000 C   0  0  0  0  0  0  0  0  0  0  0  0
   -8.7956   16.1674    0.0000 C   0  0  0  0  0  0  0  0  0  0  0  0
   -4.1640    8.4587    0.0000 C   0  0  0  0  0  0  0  0  0  0  0  0
   -3.4140    7.1597    0.0000 O   0  0  0  0  0  0  0  0  0  0  0  0
   -5.6640    8.4587    0.0000 C   0  0  0  0  0  0  0  0  0  0  0  0
   -6.4140    9.7578    0.0000 C   0  0  0  0  0  0  0  0  0  0  0  0
   -7.9140    9.7578    0.0000 C   0  0  0  0  0  0  0  0  0  0  0  0
   -8.6640    8.4587    0.0000 C   0  0  0  0  0  0  0  0  0  0  0  0
  -10.1640    8.4587    0.0000 C   0  0  0  0  0  0  0  0  0  0  0  0
  -10.9140    9.7578    0.0000 C   0  0  0  0  0  0  0  0  0  0  0  0
  -10.1640   11.0568    0.0000 C   0  0  0  0  0  0  0  0  0  0  0  0
   -8.6640   11.0568    0.0000 C   0  0  0  0  0  0  0  0  0  0  0  0
   -6.4140    7.1597    0.0000 N   0  0  0  0  0  0  0  0  0  0  0  0
   -5.6640    5.8606    0.0000 C   0  0  0  0  0  0  0  0  0  0  0  0
   -4.1640    5.8606    0.0000 O   0  0  0  0  0  0  0  0  0  0  0  0
   -6.4140    4.5616    0.0000 C   0  0  0  0  0  0  0  0  0  0  0  0
   -7.9140    4.5616    0.0000 C   0  0  0  0  0  0  0  0  0  0  0  0
   -8.6640    3.2626    0.0000 C   0  0  0  0  0  0  0  0  0  0  0  0
   -7.9140    1.9635    0.0000 C   0  0  0  0  0  0  0  0  0  0  0  0
   -8.6640    0.6645    0.0000 C   0  0  0  0  0  0  0  0  0  0  0  0
  -10.1640    0.6645    0.0000 C   0  0  0  0  0  0  0  0  0  0  0  0
  -10.9140    1.9635    0.0000 C   0  0  0  0  0  0  0  0  0  0  0  0
  -10.1640    3.2626    0.0000 C   0  0  0  0  0  0  0  0  0  0  0  0
   -5.6640    3.2626    0.0000 N   0  0  0  0  0  0  0  0  0  0  0  0
   -4.1640    3.2626    0.0000 C   0  0  0  0  0  0  0  0  0  0  0  0
   -3.4140    4.5616    0.0000 O   0  0  0  0  0  0  0  0  0  0  0  0
   -3.4140    1.9635    0.0000 O   0  0  0  0  0  0  0  0  0  0  0  0
   -1.9140    1.9635    0.0000 C   0  0  0  0  0  0  0  0  0  0  0  0
   -1.0323    3.1771    0.0000 C   0  0  0  0  0  0  0  0  0  0  0  0
    0.3943    2.7135    0.0000 O   0  0  0  0  0  0  0  0  0  0  0  0
    0.3943    1.2135    0.0000 C   0  0  0  0  0  0  0  0  0  0  0  0
    1.2760    0.0000    0.0000 O   0  0  0  0  0  0  0  0  0  0  0  0
    0.3943   -1.2135    0.0000 C   0  0  0  0  0  0  0  0  0  0  0  0
   -1.0323   -0.7500    0.0000 C   0  0  0  0  0  0  0  0  0  0  0  0
   -1.0323    0.7500    0.0000 C   0  0  0  0  0  0  0  0  0  0  0  0
  1  2  1  0
  2  3  1  0
  2  4  1  0
  4  5  1  0
  5  6  1  0
  6  7  1  0
  7  8  1  0
  7  9  1  0
  9 10  1  0
 10 11  1  0
 11 12  2  0
 12 13  1  0
 13 14  2  0
 14 15  1  0
 15 16  2  0
  9 17  1  0
 17 18  1  0
 18 19  2  0
 18 20  1  0
 20 21  1  0
 21 22  1  0
 22 23  1  0
 23 24  1  0
  5 25  1  0
 25 26  2  0
 25 27  1  0
 27 28  1  0
 28 29  1  0
 29 30  2  0
 30 31  1  0
 31 32  2  0
 32 33  1  0
 33 34  2  0
 27 35  1  0
 35 36  1  0
 36 37  2  0
 36 38  1  0
 38 39  1  0
 39 40  1  0
 40 41  2  0
 41 42  1  0
 42 43  2  0
 43 44  1  0
 44 45  2  0
 38 46  1  0
 46 47  1  0
 47 48  2  0
 47 49  1  0
 49 50  1  0
 50 51  1  0
 51 52  1  0
 52 53  1  0
 53 54  1  0
 54 55  1  0
 55 56  1  0
 56 57  1  0
 16 11  1  0
 24 20  1  0
 34 29  1  0
 45 40  1  0
 57 50  1  0
 57 53  1  0
M  END
>  <Title>  (58) 
idAACFgen4

$$$$

     RDKit          2D

 59 64  0  0  0  0  0  0  0  0999 V2000
    0.3360    3.2626    0.0000 C   0  0  0  0  0  0  0  0  0  0  0  0
    1.0860    4.5616    0.0000 C   0  0  0  0  0  0  0  0  0  0  0  0
    2.5860    4.5616    0.0000 C   0  0  0  0  0  0  0  0  0  0  0  0
    0.3360    5.8606    0.0000 C   0  0  0  0  0  0  0  0  0  0  0  0
    1.0860    7.1597    0.0000 C   0  0  0  0  0  0  0  0  0  0  0  0
    0.3360    8.4587    0.0000 N   0  0  0  0  0  0  0  0  0  0  0  0
   -1.1640    8.4587    0.0000 C   0  0  0  0  0  0  0  0  0  0  0  0
   -1.9140    7.1597    0.0000 O   0  0  0  0  0  0  0  0  0  0  0  0
   -1.9140    9.7578    0.0000 C   0  0  0  0  0  0  0  0  0  0  0  0
   -1.1640   11.0568    0.0000 C   0  0  0  0  0  0  0  0  0  0  0  0
    0.3360   11.0568    0.0000 C   0  0  0  0  0  0  0  0  0  0  0  0
    1.0860    9.7578    0.0000 C   0  0  0  0  0  0  0  0  0  0  0  0
    2.5860    9.7578    0.0000 C   0  0  0  0  0  0  0  0  0  0  0  0
    3.3360   11.0568    0.0000 C   0  0  0  0  0  0  0  0  0  0  0  0
    2.5860   12.3558    0.0000 C   0  0  0  0  0  0  0  0  0  0  0  0
    1.0860   12.3558    0.0000 C   0  0  0  0  0  0  0  0  0  0  0  0
   -3.4140    9.7578    0.0000 N   0  0  0  0  0  0  0  0  0  0  0  0
   -4.1640    8.4587    0.0000 C   0  0  0  0  0  0  0  0  0  0  0  0
   -3.4140    7.1597    0.0000 O   0  0  0  0  0  0  0  0  0  0  0  0
   -5.6640    8.4587    0.0000 C   0  0  0  0  0  0  0  0  0  0  0  0
   -6.4140    9.7578    0.0000 C   0  0  0  0  0  0  0  0  0  0  0  0
   -5.6640   11.0568    0.0000 C   0  0  0  0  0  0  0  0  0  0  0  0
   -4.1640   11.0568    0.0000 C   0  0  0  0  0  0  0  0  0  0  0  0
   -3.4140   12.3558    0.0000 C   0  0  0  0  0  0  0  0  0  0  0  0
   -4.1640   13.6549    0.0000 C   0  0  0  0  0  0  0  0  0  0  0  0
   -5.6640   13.6549    0.0000 C   0  0  0  0  0  0  0  0  0  0  0  0
   -6.4140   12.3558    0.0000 C   0  0  0  0  0  0  0  0  0  0  0  0
   -6.4140    7.1597    0.0000 N   0  0  0  0  0  0  0  0  0  0  0  0
   -5.6640    5.8606    0.0000 C   0  0  0  0  0  0  0  0  0  0  0  0
   -4.1640    5.8606    0.0000 O   0  0  0  0  0  0  0  0  0  0  0  0
   -6.4140    4.5616    0.0000 C   0  0  0  0  0  0  0  0  0  0  0  0
   -7.9140    4.5616    0.0000 C   0  0  0  0  0  0  0  0  0  0  0  0
   -8.6640    5.8606    0.0000 C   0  0  0  0  0  0  0  0  0  0  0  0
   -7.9140    7.1597    0.0000 C   0  0  0  0  0  0  0  0  0  0  0  0
   -8.6640    8.4587    0.0000 C   0  0  0  0  0  0  0  0  0  0  0  0
  -10.1640    8.4587    0.0000 C   0  0  0  0  0  0  0  0  0  0  0  0
  -10.9140    7.1597    0.0000 C   0  0  0  0  0  0  0  0  0  0  0  0
  -10.1640    5.8606    0.0000 C   0  0  0  0  0  0  0  0  0  0  0  0
   -5.6640    3.2626    0.0000 N   0  0  0  0  0  0  0  0  0  0  0  0
   -4.1640    3.2626    0.0000 C   0  0  0  0  0  0  0  0  0  0  0  0
   -3.4140    4.5616    0.0000 O   0  0  0  0  0  0  0  0  0  0  0  0
   -3.4140    1.9635    0.0000 O   0  0  0  0  0  0  0  0  0  0  0  0
   -4.1640    0.6645    0.0000 C   0  0  0  0  0  0  0  0  0  0  0  0
   -5.6557    0.5077    0.0000 C   0  0  0  0  0  0  0  0  0  0  0  0
   -5.9676   -0.9595    0.0000 O   0  0  0  0  0  0  0  0  0  0  0  0
   -4.6686   -1.7095    0.0000 C   0  0  0  0  0  0  0  0  0  0  0  0
   -4.0585   -3.0798    0.0000 O   0  0  0  0  0  0  0  0  0  0  0  0
   -2.5667   -2.9231    0.0000 C   0  0  0  0  0  0  0  0  0  0  0  0
   -2.2548   -1.4558    0.0000 C   0  0  0  0  0  0  0  0  0  0  0  0
   -3.5539   -0.7058    0.0000 C   0  0  0  0  0  0  0  0  0  0  0  0
    2.5860    7.1597    0.0000 S   0  0  0  0  0  0  0  0  0  0  0  0
    2.5860    8.6597    0.0000 O   0  0  0  0  0  0  0  0  0  0  0  0
    2.5860    5.6597    0.0000 O   0  0  0  0  0  0  0  0  0  0  0  0
    4.0860    7.1597    0.0000 C   0  0  0  0  0  0  0  0  0  0  0  0
    4.8360    5.8606    0.0000 C   0  0  0  0  0  0  0  0  0  0  0  0
    6.3360    5.8606    0.0000 C   0  0  0  0  0  0  0  0  0  0  0  0
    7.0860    7.1597    0.0000 C   0  0  0  0  0  0  0  0  0  0  0  0
    6.3360    8.4587    0.0000 C   0  0  0  0  0  0  0  0  0  0  0  0
    4.8360    8.4587    0.0000 C   0  0  0  0  0  0  0  0  0  0  0  0
  1  2  1  0
  2  3  1  0
  2  4  1  0
  4  5  1  0
  5  6  1  0
  6  7  1  0
  7  8  2  0
  7  9  1  0
  9 10  1  0
 10 11  1  0
 11 12  2  0
 12 13  1  0
 13 14  2  0
 14 15  1  0
 15 16  2  0
  9 17  1  0
 17 18  1  0
 18 19  2  0
 18 20  1  0
 20 21  1  0
 21 22  1  0
 22 23  2  0
 23 24  1  0
 24 25  2  0
 25 26  1  0
 26 27  2  0
 20 28  1  0
 28 29  1  0
 29 30  2  0
 29 31  1  0
 31 32  1  0
 32 33  1  0
 33 34  2  0
 34 35  1  0
 35 36  2  0
 36 37  1  0
 37 38  2  0
 31 39  1  0
 39 40  1  0
 40 41  2  0
 40 42  1  0
 42 43  1  0
 43 44  1  0
 44 45  1  0
 45 46  1  0
 46 47  1  0
 47 48  1  0
 48 49  1  0
 49 50  1  0
  5 51  1  0
 51 52  2  0
 51 53  2  0
 51 54  1  0
 54 55  2  0
 55 56  1  0
 56 57  2  0
 57 58  1  0
 58 59  2  0
 16 11  1  0
 27 22  1  0
 38 33  1  0
 50 43  1  0
 59 54  1  0
 50 46  1  0
M  END
>  <Title>  (59) 
idAACGgen4

$$$$

     RDKit          2D

 68 74  0  0  0  0  0  0  0  0999 V2000
    1.0860   12.3558    0.0000 C   0  0  0  0  0  0  0  0  0  0  0  0
    0.3360   11.0568    0.0000 C   0  0  0  0  0  0  0  0  0  0  0  0
    1.0860    9.7578    0.0000 C   0  0  0  0  0  0  0  0  0  0  0  0
   -1.1640   11.0568    0.0000 C   0  0  0  0  0  0  0  0  0  0  0  0
   -1.9140    9.7578    0.0000 N   0  0  0  0  0  0  0  0  0  0  0  0
   -3.4140    9.7578    0.0000 C   0  0  0  0  0  0  0  0  0  0  0  0
   -4.1640    8.4587    0.0000 C   0  0  0  0  0  0  0  0  0  0  0  0
   -3.4140    7.1597    0.0000 O   0  0  0  0  0  0  0  0  0  0  0  0
   -5.6640    8.4587    0.0000 C   0  0  0  0  0  0  0  0  0  0  0  0
   -6.4140    9.7578    0.0000 C   0  0  0  0  0  0  0  0  0  0  0  0
   -5.6640   11.0568    0.0000 C   0  0  0  0  0  0  0  0  0  0  0  0
   -4.1640   11.0568    0.0000 C   0  0  0  0  0  0  0  0  0  0  0  0
   -3.4140   12.3558    0.0000 C   0  0  0  0  0  0  0  0  0  0  0  0
   -4.1640   13.6549    0.0000 C   0  0  0  0  0  0  0  0  0  0  0  0
   -5.6640   13.6549    0.0000 C   0  0  0  0  0  0  0  0  0  0  0  0
   -6.4140   12.3558    0.0000 C   0  0  0  0  0  0  0  0  0  0  0  0
   -6.4140    7.1597    0.0000 N   0  0  0  0  0  0  0  0  0  0  0  0
   -5.6640    5.8606    0.0000 C   0  0  0  0  0  0  0  0  0  0  0  0
   -4.1640    5.8606    0.0000 O   0  0  0  0  0  0  0  0  0  0  0  0
   -6.4140    4.5616    0.0000 C   0  0  0  0  0  0  0  0  0  0  0  0
   -7.9140    4.5616    0.0000 C   0  0  0  0  0  0  0  0  0  0  0  0
   -8.6640    5.8606    0.0000 C   0  0  0  0  0  0  0  0  0  0  0  0
   -7.9140    7.1597    0.0000 C   0  0  0  0  0  0  0  0  0  0  0  0
   -8.6640    8.4587    0.0000 C   0  0  0  0  0  0  0  0  0  0  0  0
  -10.1640    8.4587    0.0000 C   0  0  0  0  0  0  0  0  0  0  0  0
  -10.9140    7.1597    0.0000 C   0  0  0  0  0  0  0  0  0  0  0  0
  -10.1640    5.8606    0.0000 C   0  0  0  0  0  0  0  0  0  0  0  0
   -5.6640    3.2626    0.0000 N   0  0  0  0  0  0  0  0  0  0  0  0
   -4.1640    3.2626    0.0000 C   0  0  0  0  0  0  0  0  0  0  0  0
   -3.4140    4.5616    0.0000 O   0  0  0  0  0  0  0  0  0  0  0  0
   -3.4140    1.9635    0.0000 O   0  0  0  0  0  0  0  0  0  0  0  0
   -1.9140    1.9635    0.0000 C   0  0  0  0  0  0  0  0  0  0  0  0
   -1.0323    3.1771    0.0000 C   0  0  0  0  0  0  0  0  0  0  0  0
    0.3943    2.7135    0.0000 O   0  0  0  0  0  0  0  0  0  0  0  0
    0.3943    1.2135    0.0000 C   0  0  0  0  0  0  0  0  0  0  0  0
    1.2760    0.0000    0.0000 O   0  0  0  0  0  0  0  0  0  0  0  0
    0.3943   -1.2135    0.0000 C   0  0  0  0  0  0  0  0  0  0  0  0
   -1.0323   -0.7500    0.0000 C   0  0  0  0  0  0  0  0  0  0  0  0
   -1.0323    0.7500    0.0000 C   0  0  0  0  0  0  0  0  0  0  0  0
   -1.1640    8.4587    0.0000 S   0  0  0  0  0  0  0  0  0  0  0  0
   -2.4630    7.7087    0.0000 O   0  0  0  0  0  0  0  0  0  0  0  0
    0.1351    9.2087    0.0000 O   0  0  0  0  0  0  0  0  0  0  0  0
   -0.4140    7.1597    0.0000 C   0  0  0  0  0  0  0  0  0  0  0  0
   -1.1640    5.8606    0.0000 C   0  0  0  0  0  0  0  0  0  0  0  0
   -0.4140    4.5616    0.0000 C   0  0  0  0  0  0  0  0  0  0  0  0
    1.0860    4.5616    0.0000 C   0  0  0  0  0  0  0  0  0  0  0  0
    1.8360    3.2626    0.0000 N   0  0  0  0  0  0  0  0  0  0  0  0
    3.3360    3.2626    0.0000 C   0  0  0  0  0  0  0  0  0  0  0  0
    4.0860    4.5616    0.0000 O   0  0  0  0  0  0  0  0  0  0  0  0
    4.0860    1.9635    0.0000 C   0  0  0  0  0  0  0  0  0  0  0  0
    5.5860    1.9635    0.0000 C   0  0  0  0  0  0  0  0  0  0  0  0
    6.3360    3.2626    0.0000 C   0  0  0  0  0  0  0  0  0  0  0  0
    5.5860    4.5616    0.0000 C   0  0  0  0  0  0  0  0  0  0  0  0
    6.3360    5.8606    0.0000 C   0  0  0  0  0  0  0  0  0  0  0  0
    7.8360    5.8606    0.0000 C   0  0  0  0  0  0  0  0  0  0  0  0
    8.5860    4.5616    0.0000 C   0  0  0  0  0  0  0  0  0  0  0  0
    7.8360    3.2626    0.0000 C   0  0  0  0  0  0  0  0  0  0  0  0
    3.3360    0.6645    0.0000 N   0  0  0  0  0  0  0  0  0  0  0  0
    4.0860   -0.6346    0.0000 C   0  0  0  0  0  0  0  0  0  0  0  0
    5.5860   -0.6346    0.0000 O   0  0  0  0  0  0  0  0  0  0  0  0
    3.3360   -1.9336    0.0000 O   0  0  0  0  0  0  0  0  0  0  0  0
    4.0860   -3.2326    0.0000 C   0  0  0  0  0  0  0  0  0  0  0  0
    5.5778   -3.3894    0.0000 C   0  0  0  0  0  0  0  0  0  0  0  0
    5.8897   -4.8566    0.0000 C   0  0  0  0  0  0  0  0  0  0  0  0
    4.5906   -5.6066    0.0000 C   0  0  0  0  0  0  0  0  0  0  0  0
    3.4759   -4.6029    0.0000 C   0  0  0  0  0  0  0  0  0  0  0  0
    1.8360    5.8606    0.0000 C   0  0  0  0  0  0  0  0  0  0  0  0
    1.0860    7.1597    0.0000 C   0  0  0  0  0  0  0  0  0  0  0  0
  1  2  1  0
  2  3  1  0
  2  4  1  0
  4  5  1  0
  5  6  1  0
  6  7  1  0
  7  8  1  0
  7  9  1  0
  9 10  1  0
 10 11  1  0
 11 12  2  0
 12 13  1  0
 13 14  2  0
 14 15  1  0
 15 16  2  0
  9 17  1  0
 17 18  1  0
 18 19  2  0
 18 20  1  0
 20 21  1  0
 21 22  1  0
 22 23  2  0
 23 24  1  0
 24 25  2  0
 25 26  1  0
 26 27  2  0
 20 28  1  0
 28 29  1  0
 29 30  2  0
 29 31  1  0
 31 32  1  0
 32 33  1  0
 33 34  1  0
 34 35  1  0
 35 36  1  0
 36 37  1  0
 37 38  1  0
 38 39  1  0
  5 40  1  0
 40 41  2  0
 40 42  2  0
 40 43  1  0
 43 44  2  0
 44 45  1  0
 45 46  2  0
 46 47  1  0
 47 48  1  0
 48 49  2  0
 48 50  1  0
 50 51  1  0
 51 52  1  0
 52 53  2  0
 53 54  1  0
 54 55  2  0
 55 56  1  0
 56 57  2  0
 50 58  1  0
 58 59  1  0
 59 60  2  0
 59 61  1  0
 61 62  1  0
 62 63  1  0
 63 64  1  0
 64 65  1  0
 65 66  1  0
 46 67  1  0
 67 68  2  0
 16 11  1  0
 27 22  1  0
 39 32  1  0
 68 43  1  0
 39 35  1  0
 57 52  1  0
 66 62  1  0
M  END
>  <Title>  (60) 
idAACHgen4

$$$$

     RDKit          2D

 48 52  0  0  0  0  0  0  0  0999 V2000
    1.0860   12.3558    0.0000 C   0  0  0  0  0  0  0  0  0  0  0  0
    0.3360   11.0568    0.0000 C   0  0  0  0  0  0  0  0  0  0  0  0
    1.0860    9.7578    0.0000 C   0  0  0  0  0  0  0  0  0  0  0  0
   -1.1640   11.0568    0.0000 C   0  0  0  0  0  0  0  0  0  0  0  0
   -1.9140    9.7578    0.0000 C   0  0  0  0  0  0  0  0  0  0  0  0
   -3.4140    9.7578    0.0000 N   0  0  0  0  0  0  0  0  0  0  0  0
   -4.1640    8.4587    0.0000 C   0  0  0  0  0  0  0  0  0  0  0  0
   -3.4140    7.1597    0.0000 O   0  0  0  0  0  0  0  0  0  0  0  0
   -5.6640    8.4587    0.0000 C   0  0  0  0  0  0  0  0  0  0  0  0
   -6.4140    9.7578    0.0000 C   0  0  0  0  0  0  0  0  0  0  0  0
   -5.6640   11.0568    0.0000 C   0  0  0  0  0  0  0  0  0  0  0  0
   -4.1640   11.0568    0.0000 C   0  0  0  0  0  0  0  0  0  0  0  0
   -3.4140   12.3558    0.0000 C   0  0  0  0  0  0  0  0  0  0  0  0
   -4.1640   13.6549    0.0000 C   0  0  0  0  0  0  0  0  0  0  0  0
   -5.6640   13.6549    0.0000 C   0  0  0  0  0  0  0  0  0  0  0  0
   -6.4140   12.3558    0.0000 C   0  0  0  0  0  0  0  0  0  0  0  0
   -6.4140    7.1597    0.0000 N   0  0  0  0  0  0  0  0  0  0  0  0
   -5.6640    5.8606    0.0000 C   0  0  0  0  0  0  0  0  0  0  0  0
   -4.1640    5.8606    0.0000 O   0  0  0  0  0  0  0  0  0  0  0  0
   -6.4140    4.5616    0.0000 C   0  0  0  0  0  0  0  0  0  0  0  0
   -7.9140    4.5616    0.0000 C   0  0  0  0  0  0  0  0  0  0  0  0
   -8.6640    5.8606    0.0000 C   0  0  0  0  0  0  0  0  0  0  0  0
   -7.9140    7.1597    0.0000 C   0  0  0  0  0  0  0  0  0  0  0  0
   -8.6640    8.4587    0.0000 C   0  0  0  0  0  0  0  0  0  0  0  0
  -10.1640    8.4587    0.0000 C   0  0  0  0  0  0  0  0  0  0  0  0
  -10.9140    7.1597    0.0000 C   0  0  0  0  0  0  0  0  0  0  0  0
  -10.1640    5.8606    0.0000 C   0  0  0  0  0  0  0  0  0  0  0  0
   -5.6640    3.2626    0.0000 N   0  0  0  0  0  0  0  0  0  0  0  0
   -4.1640    3.2626    0.0000 C   0  0  0  0  0  0  0  0  0  0  0  0
   -3.4140    4.5616    0.0000 O   0  0  0  0  0  0  0  0  0  0  0  0
   -3.4140    1.9635    0.0000 O   0  0  0  0  0  0  0  0  0  0  0  0
   -1.9140    1.9635    0.0000 C   0  0  0  0  0  0  0  0  0  0  0  0
   -1.0323    3.1771    0.0000 C   0  0  0  0  0  0  0  0  0  0  0  0
    0.3943    2.7135    0.0000 O   0  0  0  0  0  0  0  0  0  0  0  0
    0.3943    1.2135    0.0000 C   0  0  0  0  0  0  0  0  0  0  0  0
    1.2760    0.0000    0.0000 O   0  0  0  0  0  0  0  0  0  0  0  0
    0.3943   -1.2135    0.0000 C   0  0  0  0  0  0  0  0  0  0  0  0
   -1.0323   -0.7500    0.0000 C   0  0  0  0  0  0  0  0  0  0  0  0
   -1.0323    0.7500    0.0000 C   0  0  0  0  0  0  0  0  0  0  0  0
   -1.1640    8.4587    0.0000 S   0  0  0  0  0  0  0  0  0  0  0  0
   -2.4630    7.7087    0.0000 O   0  0  0  0  0  0  0  0  0  0  0  0
    0.1351    9.2087    0.0000 O   0  0  0  0  0  0  0  0  0  0  0  0
   -0.4140    7.1597    0.0000 C   0  0  0  0  0  0  0  0  0  0  0  0
   -1.1640    5.8606    0.0000 C   0  0  0  0  0  0  0  0  0  0  0  0
   -0.4140    4.5616    0.0000 C   0  0  0  0  0  0  0  0  0  0  0  0
    1.0860    4.5616    0.0000 C   0  0  0  0  0  0  0  0  0  0  0  0
    1.8360    5.8606    0.0000 C   0  0  0  0  0  0  0  0  0  0  0  0
    1.0860    7.1597    0.0000 C   0  0  0  0  0  0  0  0  0  0  0  0
  1  2  1  0
  2  3  1  0
  2  4  1  0
  4  5  1  0
  5  6  1  0
  6  7  1  0
  7  8  2  0
  7  9  1  0
  9 10  1  0
 10 11  1  0
 11 12  2  0
 12 13  1  0
 13 14  2  0
 14 15  1  0
 15 16  2  0
  9 17  1  0
 17 18  1  0
 18 19  2  0
 18 20  1  0
 20 21  1  0
 21 22  1  0
 22 23  2  0
 23 24  1  0
 24 25  2  0
 25 26  1  0
 26 27  2  0
 20 28  1  0
 28 29  1  0
 29 30  2  0
 29 31  1  0
 31 32  1  0
 32 33  1  0
 33 34  1  0
 34 35  1  0
 35 36  1  0
 36 37  1  0
 37 38  1  0
 38 39  1  0
  5 40  1  0
 40 41  2  0
 40 42  2  0
 40 43  1  0
 43 44  2  0
 44 45  1  0
 45 46  2  0
 46 47  1  0
 47 48  2  0
 16 11  1  0
 27 22  1  0
 39 32  1  0
 48 43  1  0
 39 35  1  0
M  END
>  <Title>  (61) 
idAACIgen4

$$$$

     RDKit          2D

 59 64  0  0  0  0  0  0  0  0999 V2000
    1.0860   12.3558    0.0000 C   0  0  0  0  0  0  0  0  0  0  0  0
    0.3360   11.0568    0.0000 C   0  0  0  0  0  0  0  0  0  0  0  0
    1.0860    9.7578    0.0000 C   0  0  0  0  0  0  0  0  0  0  0  0
   -1.1640   11.0568    0.0000 C   0  0  0  0  0  0  0  0  0  0  0  0
   -1.9140    9.7578    0.0000 N   0  0  0  0  0  0  0  0  0  0  0  0
   -3.4140    9.7578    0.0000 C   0  0  0  0  0  0  0  0  0  0  0  0
   -4.1640    8.4587    0.0000 C   0  0  0  0  0  0  0  0  0  0  0  0
   -3.4140    7.1597    0.0000 O   0  0  0  0  0  0  0  0  0  0  0  0
   -5.6640    8.4587    0.0000 C   0  0  0  0  0  0  0  0  0  0  0  0
   -6.4140    9.7578    0.0000 C   0  0  0  0  0  0  0  0  0  0  0  0
   -5.6640   11.0568    0.0000 C   0  0  0  0  0  0  0  0  0  0  0  0
   -4.1640   11.0568    0.0000 C   0  0  0  0  0  0  0  0  0  0  0  0
   -3.4140   12.3558    0.0000 C   0  0  0  0  0  0  0  0  0  0  0  0
   -4.1640   13.6549    0.0000 C   0  0  0  0  0  0  0  0  0  0  0  0
   -5.6640   13.6549    0.0000 C   0  0  0  0  0  0  0  0  0  0  0  0
   -6.4140   12.3558    0.0000 C   0  0  0  0  0  0  0  0  0  0  0  0
   -6.4140    7.1597    0.0000 N   0  0  0  0  0  0  0  0  0  0  0  0
   -5.6640    5.8606    0.0000 C   0  0  0  0  0  0  0  0  0  0  0  0
   -4.1640    5.8606    0.0000 O   0  0  0  0  0  0  0  0  0  0  0  0
   -6.4140    4.5616    0.0000 C   0  0  0  0  0  0  0  0  0  0  0  0
   -7.9140    4.5616    0.0000 C   0  0  0  0  0  0  0  0  0  0  0  0
   -8.6640    5.8606    0.0000 C   0  0  0  0  0  0  0  0  0  0  0  0
   -7.9140    7.1597    0.0000 C   0  0  0  0  0  0  0  0  0  0  0  0
   -8.6640    8.4587    0.0000 C   0  0  0  0  0  0  0  0  0  0  0  0
  -10.1640    8.4587    0.0000 C   0  0  0  0  0  0  0  0  0  0  0  0
  -10.9140    7.1597    0.0000 C   0  0  0  0  0  0  0  0  0  0  0  0
  -10.1640    5.8606    0.0000 C   0  0  0  0  0  0  0  0  0  0  0  0
   -5.6640    3.2626    0.0000 N   0  0  0  0  0  0  0  0  0  0  0  0
   -4.1640    3.2626    0.0000 C   0  0  0  0  0  0  0  0  0  0  0  0
   -3.4140    4.5616    0.0000 O   0  0  0  0  0  0  0  0  0  0  0  0
   -3.4140    1.9635    0.0000 O   0  0  0  0  0  0  0  0  0  0  0  0
   -1.9140    1.9635    0.0000 C   0  0  0  0  0  0  0  0  0  0  0  0
   -1.0323    3.1771    0.0000 C   0  0  0  0  0  0  0  0  0  0  0  0
    0.3943    2.7135    0.0000 O   0  0  0  0  0  0  0  0  0  0  0  0
    0.3943    1.2135    0.0000 C   0  0  0  0  0  0  0  0  0  0  0  0
    1.2760    0.0000    0.0000 O   0  0  0  0  0  0  0  0  0  0  0  0
    0.3943   -1.2135    0.0000 C   0  0  0  0  0  0  0  0  0  0  0  0
   -1.0323   -0.7500    0.0000 C   0  0  0  0  0  0  0  0  0  0  0  0
   -1.0323    0.7500    0.0000 C   0  0  0  0  0  0  0  0  0  0  0  0
   -1.1640    8.4587    0.0000 S   0  0  0  0  0  0  0  0  0  0  0  0
   -2.4630    7.7087    0.0000 O   0  0  0  0  0  0  0  0  0  0  0  0
    0.1351    9.2087    0.0000 O   0  0  0  0  0  0  0  0  0  0  0  0
   -0.4140    7.1597    0.0000 C   0  0  0  0  0  0  0  0  0  0  0  0
   -1.1640    5.8606    0.0000 C   0  0  0  0  0  0  0  0  0  0  0  0
   -0.4140    4.5616    0.0000 C   0  0  0  0  0  0  0  0  0  0  0  0
    1.0860    4.5616    0.0000 C   0  0  0  0  0  0  0  0  0  0  0  0
    1.8360    3.2626    0.0000 N   0  0  0  0  0  0  0  0  0  0  0  0
    3.3360    3.2626    0.0000 C   0  0  0  0  0  0  0  0  0  0  0  0
    4.0860    4.5616    0.0000 O   0  0  0  0  0  0  0  0  0  0  0  0
    4.0860    1.9635    0.0000 C   0  0  0  0  0  0  0  0  0  0  0  0
    3.1729    0.7735    0.0000 C   0  0  0  0  0  0  0  0  0  0  0  0
    3.3687   -0.7137    0.0000 C   0  0  0  0  0  0  0  0  0  0  0  0
    4.5587   -1.6268    0.0000 C   0  0  0  0  0  0  0  0  0  0  0  0
    6.0459   -1.4310    0.0000 C   0  0  0  0  0  0  0  0  0  0  0  0
    6.9590   -0.2410    0.0000 C   0  0  0  0  0  0  0  0  0  0  0  0
    6.7632    1.2462    0.0000 C   0  0  0  0  0  0  0  0  0  0  0  0
    5.5732    2.1593    0.0000 C   0  0  0  0  0  0  0  0  0  0  0  0
    1.8360    5.8606    0.0000 C   0  0  0  0  0  0  0  0  0  0  0  0
    1.0860    7.1597    0.0000 C   0  0  0  0  0  0  0  0  0  0  0  0
  1  2  1  0
  2  3  1  0
  2  4  1  0
  4  5  1  0
  5  6  1  0
  6  7  1  0
  7  8  1  0
  7  9  1  0
  9 10  1  0
 10 11  1  0
 11 12  2  0
 12 13  1  0
 13 14  2  0
 14 15  1  0
 15 16  2  0
  9 17  1  0
 17 18  1  0
 18 19  2  0
 18 20  1  0
 20 21  1  0
 21 22  1  0
 22 23  2  0
 23 24  1  0
 24 25  2  0
 25 26  1  0
 26 27  2  0
 20 28  1  0
 28 29  1  0
 29 30  2  0
 29 31  1  0
 31 32  1  0
 32 33  1  0
 33 34  1  0
 34 35  1  0
 35 36  1  0
 36 37  1  0
 37 38  1  0
 38 39  1  0
  5 40  1  0
 40 41  2  0
 40 42  2  0
 40 43  1  0
 43 44  2  0
 44 45  1  0
 45 46  2  0
 46 47  1  0
 47 48  1  0
 48 49  2  0
 48 50  1  0
 50 51  1  0
 51 52  1  0
 52 53  1  0
 53 54  1  0
 54 55  1  0
 55 56  1  0
 56 57  1  0
 46 58  1  0
 58 59  2  0
 16 11  1  0
 27 22  1  0
 39 32  1  0
 59 43  1  0
 39 35  1  0
 57 50  1  0
M  END
>  <Title>  (62) 
idAACJgen4

$$$$

     RDKit          2D

 59 63  0  0  0  0  0  0  0  0999 V2000
   -5.3849    0.4488    0.0000 C   0  0  0  0  0  0  0  0  0  0  0  0
   -3.9583   -0.0147    0.0000 C   0  0  0  0  0  0  0  0  0  0  0  0
   -2.5317   -0.4783    0.0000 C   0  0  0  0  0  0  0  0  0  0  0  0
   -3.4948    1.4118    0.0000 C   0  0  0  0  0  0  0  0  0  0  0  0
   -4.4218   -1.4413    0.0000 N   0  0  0  0  0  0  0  0  0  0  0  0
   -3.4182   -2.5560    0.0000 C   0  0  0  0  0  0  0  0  0  0  0  0
   -1.9509   -2.2442    0.0000 O   0  0  0  0  0  0  0  0  0  0  0  0
   -3.8817   -3.9826    0.0000 C   0  0  0  0  0  0  0  0  0  0  0  0
   -5.3083   -4.4462    0.0000 C   0  0  0  0  0  0  0  0  0  0  0  0
   -5.3083   -5.9462    0.0000 C   0  0  0  0  0  0  0  0  0  0  0  0
   -3.8817   -6.4097    0.0000 C   0  0  0  0  0  0  0  0  0  0  0  0
   -3.0000   -5.1962    0.0000 C   0  0  0  0  0  0  0  0  0  0  0  0
   -1.5000   -5.1962    0.0000 C   0  0  0  0  0  0  0  0  0  0  0  0
   -0.7500   -6.4952    0.0000 O   0  0  0  0  0  0  0  0  0  0  0  0
   -0.7500   -3.8971    0.0000 N   0  0  0  0  0  0  0  0  0  0  0  0
    0.7500   -3.8971    0.0000 C   0  0  0  0  0  0  0  0  0  0  0  0
    1.5000   -2.5981    0.0000 C   0  0  0  0  0  0  0  0  0  0  0  0
    0.7500   -1.2990    0.0000 C   0  0  0  0  0  0  0  0  0  0  0  0
    1.5000    0.0000    0.0000 C   0  0  0  0  0  0  0  0  0  0  0  0
    0.7500    1.2990    0.0000 C   0  0  0  0  0  0  0  0  0  0  0  0
   -0.7500    1.2990    0.0000 C   0  0  0  0  0  0  0  0  0  0  0  0
   -1.5000    0.0000    0.0000 C   0  0  0  0  0  0  0  0  0  0  0  0
   -0.7500   -1.2990    0.0000 C   0  0  0  0  0  0  0  0  0  0  0  0
    1.5000   -5.1962    0.0000 C   0  0  0  0  0  0  0  0  0  0  0  0
    3.0000   -5.1962    0.0000 O   0  0  0  0  0  0  0  0  0  0  0  0
    0.7500   -6.4952    0.0000 N   0  0  0  0  0  0  0  0  0  0  0  0
    1.5000   -7.7942    0.0000 C   0  0  0  0  0  0  0  0  0  0  0  0
    0.7500   -9.0933    0.0000 C   0  0  0  0  0  0  0  0  0  0  0  0
    1.5000  -10.3923    0.0000 C   0  0  0  0  0  0  0  0  0  0  0  0
    0.7500  -11.6913    0.0000 C   0  0  0  0  0  0  0  0  0  0  0  0
    1.5000  -12.9904    0.0000 C   0  0  0  0  0  0  0  0  0  0  0  0
    3.0000  -12.9904    0.0000 C   0  0  0  0  0  0  0  0  0  0  0  0
    3.7500  -11.6913    0.0000 C   0  0  0  0  0  0  0  0  0  0  0  0
    3.0000  -10.3923    0.0000 C   0  0  0  0  0  0  0  0  0  0  0  0
    3.0000   -7.7942    0.0000 C   0  0  0  0  0  0  0  0  0  0  0  0
    3.7500   -6.4952    0.0000 O   0  0  0  0  0  0  0  0  0  0  0  0
    3.7500   -9.0933    0.0000 N   0  0  0  0  0  0  0  0  0  0  0  0
    5.2500   -9.0933    0.0000 C   0  0  0  0  0  0  0  0  0  0  0  0
    6.0000  -10.3923    0.0000 C   0  0  0  0  0  0  0  0  0  0  0  0
    7.5000  -10.3923    0.0000 C   0  0  0  0  0  0  0  0  0  0  0  0
    8.2500  -11.6913    0.0000 C   0  0  0  0  0  0  0  0  0  0  0  0
    9.7500  -11.6913    0.0000 C   0  0  0  0  0  0  0  0  0  0  0  0
   10.5000  -10.3923    0.0000 C   0  0  0  0  0  0  0  0  0  0  0  0
    9.7500   -9.0933    0.0000 C   0  0  0  0  0  0  0  0  0  0  0  0
    8.2500   -9.0933    0.0000 C   0  0  0  0  0  0  0  0  0  0  0  0
    6.0000   -7.7942    0.0000 C   0  0  0  0  0  0  0  0  0  0  0  0
    5.2500   -6.4952    0.0000 O   0  0  0  0  0  0  0  0  0  0  0  0
    7.5000   -7.7942    0.0000 N   0  0  0  0  0  0  0  0  0  0  0  0
    8.2500   -6.4952    0.0000 C   0  0  0  0  0  0  0  0  0  0  0  0
    9.7500   -6.4952    0.0000 C   0  0  0  0  0  0  0  0  0  0  0  0
   10.5000   -5.1962    0.0000 C   0  0  0  0  0  0  0  0  0  0  0  0
   12.0000   -5.1962    0.0000 C   0  0  0  0  0  0  0  0  0  0  0  0
   12.7500   -3.8971    0.0000 C   0  0  0  0  0  0  0  0  0  0  0  0
   12.0000   -2.5981    0.0000 C   0  0  0  0  0  0  0  0  0  0  0  0
   10.5000   -2.5981    0.0000 C   0  0  0  0  0  0  0  0  0  0  0  0
    9.7500   -3.8971    0.0000 C   0  0  0  0  0  0  0  0  0  0  0  0
    7.5000   -5.1962    0.0000 C   0  0  0  0  0  0  0  0  0  0  0  0
    6.0000   -5.1962    0.0000 O   0  0  0  0  0  0  0  0  0  0  0  0
    8.2500   -3.8971    0.0000 O   0  0  0  0  0  0  0  0  0  0  0  0
  1  2  1  0
  2  3  1  0
  2  4  1  0
  2  5  1  0
  5  6  1  0
  6  7  2  0
  6  8  1  0
  8  9  1  0
  9 10  1  0
 10 11  1  0
 11 12  1  0
 12 13  1  0
 13 14  2  0
 13 15  1  0
 15 16  1  0
 16 17  1  0
 17 18  1  0
 18 19  2  0
 19 20  1  0
 20 21  2  0
 21 22  1  0
 22 23  2  0
 16 24  1  0
 24 25  2  0
 24 26  1  0
 26 27  1  0
 27 28  1  0
 28 29  1  0
 29 30  2  0
 30 31  1  0
 31 32  2  0
 32 33  1  0
 33 34  2  0
 27 35  1  0
 35 36  2  0
 35 37  1  0
 37 38  1  0
 38 39  1  0
 39 40  1  0
 40 41  2  0
 41 42  1  0
 42 43  2  0
 43 44  1  0
 44 45  2  0
 38 46  1  0
 46 47  2  0
 46 48  1  0
 48 49  1  0
 49 50  1  0
 50 51  1  0
 51 52  2  0
 52 53  1  0
 53 54  2  0
 54 55  1  0
 55 56  2  0
 49 57  1  0
 57 58  2  0
 57 59  1  0
 12  8  1  0
 23 18  1  0
 34 29  1  0
 45 40  1  0
 56 51  1  0
M  END
>  <Title>  (63) 
idAACKgen4

$$$$

     RDKit          2D

 62 67  0  0  0  0  0  0  0  0999 V2000
    1.0860   12.3558    0.0000 C   0  0  0  0  0  0  0  0  0  0  0  0
    0.3360   11.0568    0.0000 C   0  0  0  0  0  0  0  0  0  0  0  0
    1.0860    9.7578    0.0000 C   0  0  0  0  0  0  0  0  0  0  0  0
   -1.1640   11.0568    0.0000 C   0  0  0  0  0  0  0  0  0  0  0  0
   -1.9140    9.7578    0.0000 N   0  0  0  0  0  0  0  0  0  0  0  0
   -3.4140    9.7578    0.0000 C   0  0  0  0  0  0  0  0  0  0  0  0
   -4.1640    8.4587    0.0000 C   0  0  0  0  0  0  0  0  0  0  0  0
   -3.4140    7.1597    0.0000 O   0  0  0  0  0  0  0  0  0  0  0  0
   -5.6640    8.4587    0.0000 C   0  0  0  0  0  0  0  0  0  0  0  0
   -6.4140    9.7578    0.0000 C   0  0  0  0  0  0  0  0  0  0  0  0
   -5.6640   11.0568    0.0000 C   0  0  0  0  0  0  0  0  0  0  0  0
   -4.1640   11.0568    0.0000 C   0  0  0  0  0  0  0  0  0  0  0  0
   -3.4140   12.3558    0.0000 C   0  0  0  0  0  0  0  0  0  0  0  0
   -4.1640   13.6549    0.0000 C   0  0  0  0  0  0  0  0  0  0  0  0
   -5.6640   13.6549    0.0000 C   0  0  0  0  0  0  0  0  0  0  0  0
   -6.4140   12.3558    0.0000 C   0  0  0  0  0  0  0  0  0  0  0  0
   -6.4140    7.1597    0.0000 N   0  0  0  0  0  0  0  0  0  0  0  0
   -5.6640    5.8606    0.0000 C   0  0  0  0  0  0  0  0  0  0  0  0
   -4.1640    5.8606    0.0000 O   0  0  0  0  0  0  0  0  0  0  0  0
   -6.4140    4.5616    0.0000 C   0  0  0  0  0  0  0  0  0  0  0  0
   -7.9140    4.5616    0.0000 C   0  0  0  0  0  0  0  0  0  0  0  0
   -8.6640    5.8606    0.0000 C   0  0  0  0  0  0  0  0  0  0  0  0
   -7.9140    7.1597    0.0000 C   0  0  0  0  0  0  0  0  0  0  0  0
   -8.6640    8.4587    0.0000 C   0  0  0  0  0  0  0  0  0  0  0  0
  -10.1640    8.4587    0.0000 C   0  0  0  0  0  0  0  0  0  0  0  0
  -10.9140    7.1597    0.0000 C   0  0  0  0  0  0  0  0  0  0  0  0
  -10.1640    5.8606    0.0000 C   0  0  0  0  0  0  0  0  0  0  0  0
   -5.6640    3.2626    0.0000 N   0  0  0  0  0  0  0  0  0  0  0  0
   -4.1640    3.2626    0.0000 C   0  0  0  0  0  0  0  0  0  0  0  0
   -3.4140    4.5616    0.0000 O   0  0  0  0  0  0  0  0  0  0  0  0
   -3.4140    1.9635    0.0000 O   0  0  0  0  0  0  0  0  0  0  0  0
   -1.9140    1.9635    0.0000 C   0  0  0  0  0  0  0  0  0  0  0  0
   -1.0323    3.1771    0.0000 C   0  0  0  0  0  0  0  0  0  0  0  0
    0.3943    2.7135    0.0000 O   0  0  0  0  0  0  0  0  0  0  0  0
    0.3943    1.2135    0.0000 C   0  0  0  0  0  0  0  0  0  0  0  0
    1.2760    0.0000    0.0000 O   0  0  0  0  0  0  0  0  0  0  0  0
    0.3943   -1.2135    0.0000 C   0  0  0  0  0  0  0  0  0  0  0  0
   -1.0323   -0.7500    0.0000 C   0  0  0  0  0  0  0  0  0  0  0  0
   -1.0323    0.7500    0.0000 C   0  0  0  0  0  0  0  0  0  0  0  0
   -1.1640    8.4587    0.0000 S   0  0  0  0  0  0  0  0  0  0  0  0
   -2.4630    7.7087    0.0000 O   0  0  0  0  0  0  0  0  0  0  0  0
    0.1351    9.2087    0.0000 O   0  0  0  0  0  0  0  0  0  0  0  0
   -0.4140    7.1597    0.0000 C   0  0  0  0  0  0  0  0  0  0  0  0
   -1.1640    5.8606    0.0000 C   0  0  0  0  0  0  0  0  0  0  0  0
   -0.4140    4.5616    0.0000 C   0  0  0  0  0  0  0  0  0  0  0  0
    1.0860    4.5616    0.0000 C   0  0  0  0  0  0  0  0  0  0  0  0
    1.8360    3.2626    0.0000 N   0  0  0  0  0  0  0  0  0  0  0  0
    3.3360    3.2626    0.0000 C   0  0  0  0  0  0  0  0  0  0  0  0
    4.0860    4.5616    0.0000 O   0  0  0  0  0  0  0  0  0  0  0  0
    4.0860    1.9635    0.0000 C   0  0  0  0  0  0  0  0  0  0  0  0
    3.3360    0.6645    0.0000 C   0  0  0  0  0  0  0  0  0  0  0  0
    4.0860   -0.6346    0.0000 C   0  0  0  0  0  0  0  0  0  0  0  0
    5.5860   -0.6346    0.0000 C   0  0  0  0  0  0  0  0  0  0  0  0
    6.3360   -1.9336    0.0000 C   0  0  0  0  0  0  0  0  0  0  0  0
    5.5860   -3.2326    0.0000 C   0  0  0  0  0  0  0  0  0  0  0  0
    4.0860   -3.2326    0.0000 C   0  0  0  0  0  0  0  0  0  0  0  0
    3.3360   -1.9336    0.0000 C   0  0  0  0  0  0  0  0  0  0  0  0
    5.5860    1.9635    0.0000 C   0  0  0  0  0  0  0  0  0  0  0  0
    6.3360    3.2626    0.0000 O   0  0  0  0  0  0  0  0  0  0  0  0
    6.3360    0.6645    0.0000 O   0  0  0  0  0  0  0  0  0  0  0  0
    1.8360    5.8606    0.0000 C   0  0  0  0  0  0  0  0  0  0  0  0
    1.0860    7.1597    0.0000 C   0  0  0  0  0  0  0  0  0  0  0  0
  1  2  1  0
  2  3  1  0
  2  4  1  0
  4  5  1  0
  5  6  1  0
  6  7  1  0
  7  8  1  0
  7  9  1  0
  9 10  1  0
 10 11  1  0
 11 12  2  0
 12 13  1  0
 13 14  2  0
 14 15  1  0
 15 16  2  0
  9 17  1  0
 17 18  1  0
 18 19  2  0
 18 20  1  0
 20 21  1  0
 21 22  1  0
 22 23  2  0
 23 24  1  0
 24 25  2  0
 25 26  1  0
 26 27  2  0
 20 28  1  0
 28 29  1  0
 29 30  2  0
 29 31  1  0
 31 32  1  0
 32 33  1  0
 33 34  1  0
 34 35  1  0
 35 36  1  0
 36 37  1  0
 37 38  1  0
 38 39  1  0
  5 40  1  0
 40 41  2  0
 40 42  2  0
 40 43  1  0
 43 44  2  0
 44 45  1  0
 45 46  2  0
 46 47  1  0
 47 48  1  0
 48 49  2  0
 48 50  1  0
 50 51  1  0
 51 52  1  0
 52 53  2  0
 53 54  1  0
 54 55  2  0
 55 56  1  0
 56 57  2  0
 50 58  1  0
 58 59  2  0
 58 60  1  0
 46 61  1  0
 61 62  2  0
 16 11  1  0
 27 22  1  0
 39 32  1  0
 62 43  1  0
 39 35  1  0
 57 52  1  0
M  END
>  <Title>  (64) 
idAACLgen4

$$$$

     RDKit          2D

 65 70  0  0  0  0  0  0  0  0999 V2000
   -0.6149   13.1058    0.0000 C   0  0  0  0  0  0  0  0  0  0  0  0
   -1.9140   12.3558    0.0000 C   0  0  0  0  0  0  0  0  0  0  0  0
   -3.2130   11.6058    0.0000 C   0  0  0  0  0  0  0  0  0  0  0  0
   -2.6640   13.6549    0.0000 C   0  0  0  0  0  0  0  0  0  0  0  0
   -1.1640   11.0568    0.0000 C   0  0  0  0  0  0  0  0  0  0  0  0
   -1.9140    9.7578    0.0000 C   0  0  0  0  0  0  0  0  0  0  0  0
   -3.4140    9.7578    0.0000 N   0  0  0  0  0  0  0  0  0  0  0  0
   -4.1640    8.4587    0.0000 C   0  0  0  0  0  0  0  0  0  0  0  0
   -3.4140    7.1597    0.0000 O   0  0  0  0  0  0  0  0  0  0  0  0
   -5.6640    8.4587    0.0000 C   0  0  0  0  0  0  0  0  0  0  0  0
   -6.4140    9.7578    0.0000 C   0  0  0  0  0  0  0  0  0  0  0  0
   -5.6640   11.0568    0.0000 C   0  0  0  0  0  0  0  0  0  0  0  0
   -4.1640   11.0568    0.0000 C   0  0  0  0  0  0  0  0  0  0  0  0
   -3.4140   12.3558    0.0000 C   0  0  0  0  0  0  0  0  0  0  0  0
   -4.1640   13.6549    0.0000 C   0  0  0  0  0  0  0  0  0  0  0  0
   -5.6640   13.6549    0.0000 C   0  0  0  0  0  0  0  0  0  0  0  0
   -6.4140   12.3558    0.0000 C   0  0  0  0  0  0  0  0  0  0  0  0
   -6.4140    7.1597    0.0000 N   0  0  0  0  0  0  0  0  0  0  0  0
   -5.6640    5.8606    0.0000 C   0  0  0  0  0  0  0  0  0  0  0  0
   -4.1640    5.8606    0.0000 O   0  0  0  0  0  0  0  0  0  0  0  0
   -6.4140    4.5616    0.0000 C   0  0  0  0  0  0  0  0  0  0  0  0
   -7.9140    4.5616    0.0000 C   0  0  0  0  0  0  0  0  0  0  0  0
   -8.6640    5.8606    0.0000 C   0  0  0  0  0  0  0  0  0  0  0  0
   -7.9140    7.1597    0.0000 C   0  0  0  0  0  0  0  0  0  0  0  0
   -8.6640    8.4587    0.0000 C   0  0  0  0  0  0  0  0  0  0  0  0
  -10.1640    8.4587    0.0000 C   0  0  0  0  0  0  0  0  0  0  0  0
  -10.9140    7.1597    0.0000 C   0  0  0  0  0  0  0  0  0  0  0  0
  -10.1640    5.8606    0.0000 C   0  0  0  0  0  0  0  0  0  0  0  0
   -5.6640    3.2626    0.0000 N   0  0  0  0  0  0  0  0  0  0  0  0
   -4.1640    3.2626    0.0000 C   0  0  0  0  0  0  0  0  0  0  0  0
   -3.4140    4.5616    0.0000 O   0  0  0  0  0  0  0  0  0  0  0  0
   -3.4140    1.9635    0.0000 O   0  0  0  0  0  0  0  0  0  0  0  0
   -1.9140    1.9635    0.0000 C   0  0  0  0  0  0  0  0  0  0  0  0
   -1.0323    3.1771    0.0000 C   0  0  0  0  0  0  0  0  0  0  0  0
    0.3943    2.7135    0.0000 O   0  0  0  0  0  0  0  0  0  0  0  0
    0.3943    1.2135    0.0000 C   0  0  0  0  0  0  0  0  0  0  0  0
    1.2760    0.0000    0.0000 O   0  0  0  0  0  0  0  0  0  0  0  0
    0.3943   -1.2135    0.0000 C   0  0  0  0  0  0  0  0  0  0  0  0
   -1.0323   -0.7500    0.0000 C   0  0  0  0  0  0  0  0  0  0  0  0
   -1.0323    0.7500    0.0000 C   0  0  0  0  0  0  0  0  0  0  0  0
   -1.1640    8.4587    0.0000 S   0  0  0  0  0  0  0  0  0  0  0  0
   -2.4630    7.7087    0.0000 O   0  0  0  0  0  0  0  0  0  0  0  0
    0.1351    9.2087    0.0000 O   0  0  0  0  0  0  0  0  0  0  0  0
   -0.4140    7.1597    0.0000 C   0  0  0  0  0  0  0  0  0  0  0  0
   -1.1640    5.8606    0.0000 C   0  0  0  0  0  0  0  0  0  0  0  0
   -0.4140    4.5616    0.0000 C   0  0  0  0  0  0  0  0  0  0  0  0
    1.0860    4.5616    0.0000 C   0  0  0  0  0  0  0  0  0  0  0  0
    1.8360    3.2626    0.0000 N   0  0  0  0  0  0  0  0  0  0  0  0
    3.3360    3.2626    0.0000 C   0  0  0  0  0  0  0  0  0  0  0  0
    4.0860    4.5616    0.0000 O   0  0  0  0  0  0  0  0  0  0  0  0
    4.0860    1.9635    0.0000 C   0  0  0  0  0  0  0  0  0  0  0  0
    3.3360    0.6645    0.0000 O   0  0  0  0  0  0  0  0  0  0  0  0
    5.5860    1.9635    0.0000 C   0  0  0  0  0  0  0  0  0  0  0  0
    6.3360    0.6645    0.0000 C   0  0  0  0  0  0  0  0  0  0  0  0
    7.8360    0.6645    0.0000 C   0  0  0  0  0  0  0  0  0  0  0  0
    8.5860   -0.6346    0.0000 C   0  0  0  0  0  0  0  0  0  0  0  0
   10.0860   -0.6346    0.0000 C   0  0  0  0  0  0  0  0  0  0  0  0
   10.8360    0.6645    0.0000 C   0  0  0  0  0  0  0  0  0  0  0  0
   10.0860    1.9635    0.0000 C   0  0  0  0  0  0  0  0  0  0  0  0
    8.5860    1.9635    0.0000 C   0  0  0  0  0  0  0  0  0  0  0  0
    6.3360    3.2626    0.0000 C   0  0  0  0  0  0  0  0  0  0  0  0
    5.5860    4.5616    0.0000 O   0  0  0  0  0  0  0  0  0  0  0  0
    7.8360    3.2626    0.0000 O   0  0  0  0  0  0  0  0  0  0  0  0
    1.8360    5.8606    0.0000 C   0  0  0  0  0  0  0  0  0  0  0  0
    1.0860    7.1597    0.0000 C   0  0  0  0  0  0  0  0  0  0  0  0
  1  2  1  0
  2  3  1  0
  2  4  1  0
  2  5  1  0
  5  6  1  0
  6  7  1  0
  7  8  1  0
  8  9  2  0
  8 10  1  0
 10 11  1  0
 11 12  1  0
 12 13  2  0
 13 14  1  0
 14 15  2  0
 15 16  1  0
 16 17  2  0
 10 18  1  0
 18 19  1  0
 19 20  2  0
 19 21  1  0
 21 22  1  0
 22 23  1  0
 23 24  2  0
 24 25  1  0
 25 26  2  0
 26 27  1  0
 27 28  2  0
 21 29  1  0
 29 30  1  0
 30 31  2  0
 30 32  1  0
 32 33  1  0
 33 34  1  0
 34 35  1  0
 35 36  1  0
 36 37  1  0
 37 38  1  0
 38 39  1  0
 39 40  1  0
  6 41  1  0
 41 42  2  0
 41 43  2  0
 41 44  1  0
 44 45  2  0
 45 46  1  0
 46 47  2  0
 47 48  1  0
 48 49  1  0
 49 50  2  0
 49 51  1  0
 51 52  1  0
 51 53  1  0
 53 54  1  0
 54 55  1  0
 55 56  2  0
 56 57  1  0
 57 58  2  0
 58 59  1  0
 59 60  2  0
 53 61  1  0
 61 62  2  0
 61 63  1  0
 47 64  1  0
 64 65  2  0
 17 12  1  0
 28 23  1  0
 40 33  1  0
 65 44  1  0
 40 36  1  0
 60 55  1  0
M  END
>  <Title>  (65) 
idAACMgen4

$$$$

     RDKit          2D

 60 65  0  0  0  0  0  0  0  0999 V2000
    7.9461    3.2760    0.0000 C   0  0  0  0  0  0  0  0  0  0  0  0
    9.0952    4.2402    0.0000 C   0  0  0  0  0  0  0  0  0  0  0  0
   10.5047    3.7272    0.0000 C   0  0  0  0  0  0  0  0  0  0  0  0
    8.8347    5.7174    0.0000 C   0  0  0  0  0  0  0  0  0  0  0  0
    9.9838    6.6816    0.0000 N   0  0  0  0  0  0  0  0  0  0  0  0
   11.3933    6.1686    0.0000 C   0  0  0  0  0  0  0  0  0  0  0  0
   12.5424    7.1327    0.0000 C   0  0  0  0  0  0  0  0  0  0  0  0
   12.2819    8.6100    0.0000 O   0  0  0  0  0  0  0  0  0  0  0  0
   13.9519    6.6197    0.0000 C   0  0  0  0  0  0  0  0  0  0  0  0
   15.1010    7.5839    0.0000 C   0  0  0  0  0  0  0  0  0  0  0  0
   16.5105    7.0709    0.0000 C   0  0  0  0  0  0  0  0  0  0  0  0
   16.7710    5.5937    0.0000 C   0  0  0  0  0  0  0  0  0  0  0  0
   18.1805    5.0806    0.0000 C   0  0  0  0  0  0  0  0  0  0  0  0
   19.3296    6.0448    0.0000 C   0  0  0  0  0  0  0  0  0  0  0  0
   19.0691    7.5220    0.0000 C   0  0  0  0  0  0  0  0  0  0  0  0
   17.6596    8.0351    0.0000 C   0  0  0  0  0  0  0  0  0  0  0  0
   14.2124    5.1425    0.0000 N   0  0  0  0  0  0  0  0  0  0  0  0
   13.0633    4.1783    0.0000 C   0  0  0  0  0  0  0  0  0  0  0  0
   11.6538    4.6914    0.0000 O   0  0  0  0  0  0  0  0  0  0  0  0
   13.3238    2.7011    0.0000 C   0  0  0  0  0  0  0  0  0  0  0  0
   12.1747    1.7369    0.0000 C   0  0  0  0  0  0  0  0  0  0  0  0
   12.4352    0.2597    0.0000 C   0  0  0  0  0  0  0  0  0  0  0  0
   11.2861   -0.7045    0.0000 C   0  0  0  0  0  0  0  0  0  0  0  0
   11.5466   -2.1817    0.0000 C   0  0  0  0  0  0  0  0  0  0  0  0
   12.9561   -2.6947    0.0000 C   0  0  0  0  0  0  0  0  0  0  0  0
   14.1052   -1.7305    0.0000 C   0  0  0  0  0  0  0  0  0  0  0  0
   13.8447   -0.2533    0.0000 C   0  0  0  0  0  0  0  0  0  0  0  0
   14.7333    2.1881    0.0000 N   0  0  0  0  0  0  0  0  0  0  0  0
   14.9938    0.7109    0.0000 C   0  0  0  0  0  0  0  0  0  0  0  0
   14.5253    0.0659    0.0000 O   0  0  0  0  0  0  0  0  0  0  0  0
   16.4033    0.1978    0.0000 O   0  0  0  0  0  0  0  0  0  0  0  0
   16.6638   -1.2794    0.0000 C   0  0  0  0  0  0  0  0  0  0  0  0
   15.6218   -2.3584    0.0000 C   0  0  0  0  0  0  0  0  0  0  0  0
   16.3260   -3.6828    0.0000 O   0  0  0  0  0  0  0  0  0  0  0  0
   17.8032   -3.4223    0.0000 C   0  0  0  0  0  0  0  0  0  0  0  0
   19.1514   -4.0799    0.0000 O   0  0  0  0  0  0  0  0  0  0  0  0
   20.1934   -3.0009    0.0000 C   0  0  0  0  0  0  0  0  0  0  0  0
   19.4892   -1.6765    0.0000 C   0  0  0  0  0  0  0  0  0  0  0  0
   18.0120   -1.9369    0.0000 C   0  0  0  0  0  0  0  0  0  0  0  0
    9.7233    8.1588    0.0000 S   0  0  0  0  0  0  0  0  0  0  0  0
   11.2005    8.4193    0.0000 O   0  0  0  0  0  0  0  0  0  0  0  0
    8.2461    7.8983    0.0000 O   0  0  0  0  0  0  0  0  0  0  0  0
    9.4628    9.6360    0.0000 C   0  0  0  0  0  0  0  0  0  0  0  0
    8.0533   10.1491    0.0000 C   0  0  0  0  0  0  0  0  0  0  0  0
    7.7928   11.6263    0.0000 C   0  0  0  0  0  0  0  0  0  0  0  0
    8.9419   12.5904    0.0000 C   0  0  0  0  0  0  0  0  0  0  0  0
    8.6814   14.0677    0.0000 N   0  0  0  0  0  0  0  0  0  0  0  0
    7.2719   14.5807    0.0000 C   0  0  0  0  0  0  0  0  0  0  0  0
    6.1228   13.6165    0.0000 O   0  0  0  0  0  0  0  0  0  0  0  0
    7.0114   16.0579    0.0000 C   0  0  0  0  0  0  0  0  0  0  0  0
    8.3104   16.8079    0.0000 C   0  0  0  0  0  0  0  0  0  0  0  0
    8.8235   18.2174    0.0000 C   0  0  0  0  0  0  0  0  0  0  0  0
    8.3104   19.6270    0.0000 C   0  0  0  0  0  0  0  0  0  0  0  0
    7.0114   20.3770    0.0000 C   0  0  0  0  0  0  0  0  0  0  0  0
    5.5342   20.1165    0.0000 C   0  0  0  0  0  0  0  0  0  0  0  0
    4.5700   18.9674    0.0000 C   0  0  0  0  0  0  0  0  0  0  0  0
    4.5700   17.4674    0.0000 C   0  0  0  0  0  0  0  0  0  0  0  0
    5.5342   16.3184    0.0000 C   0  0  0  0  0  0  0  0  0  0  0  0
   10.3514   12.0774    0.0000 C   0  0  0  0  0  0  0  0  0  0  0  0
   10.6119   10.6002    0.0000 C   0  0  0  0  0  0  0  0  0  0  0  0
  1  2  1  0
  2  3  1  0
  2  4  1  0
  4  5  1  0
  5  6  1  0
  6  7  1  0
  7  8  1  0
  7  9  1  0
  9 10  1  0
 10 11  1  0
 11 12  2  0
 12 13  1  0
 13 14  2  0
 14 15  1  0
 15 16  2  0
  9 17  1  0
 17 18  1  0
 18 19  2  0
 18 20  1  0
 20 21  1  0
 21 22  1  0
 22 23  2  0
 23 24  1  0
 24 25  2  0
 25 26  1  0
 26 27  2  0
 20 28  1  0
 28 29  1  0
 29 30  2  0
 29 31  1  0
 31 32  1  0
 32 33  1  0
 33 34  1  0
 34 35  1  0
 35 36  1  0
 36 37  1  0
 37 38  1  0
 38 39  1  0
  5 40  1  0
 40 41  2  0
 40 42  2  0
 40 43  1  0
 43 44  2  0
 44 45  1  0
 45 46  2  0
 46 47  1  0
 47 48  1  0
 48 49  2  0
 48 50  1  0
 50 51  1  0
 51 52  1  0
 52 53  1  0
 53 54  1  0
 54 55  1  0
 55 56  1  0
 56 57  1  0
 57 58  1  0
 46 59  1  0
 59 60  2  0
 16 11  1  0
 27 22  1  0
 39 32  1  0
 60 43  1  0
 39 35  1  0
 58 50  1  0
M  END
>  <Title>  (66) 
idAACNgen4

$$$$

     RDKit          2D

 26 28  0  0  0  0  0  0  0  0999 V2000
    3.0000    0.0000    0.0000 C   0  0  0  0  0  0  0  0  0  0  0  0
    1.5000    0.0000    0.0000 C   0  0  0  0  0  0  0  0  0  0  0  0
    0.7500   -1.2990    0.0000 C   0  0  0  0  0  0  0  0  0  0  0  0
   -0.7500   -1.2990    0.0000 C   0  0  0  0  0  0  0  0  0  0  0  0
   -1.5000    0.0000    0.0000 C   0  0  0  0  0  0  0  0  0  0  0  0
   -3.0000    0.0000    0.0000 N   0  0  0  0  0  0  0  0  0  0  0  0
   -3.7500    1.2990    0.0000 C   0  0  0  0  0  0  0  0  0  0  0  0
   -3.0000    2.5981    0.0000 O   0  0  0  0  0  0  0  0  0  0  0  0
   -5.2500    1.2990    0.0000 C   0  0  0  0  0  0  0  0  0  0  0  0
   -6.0000    2.5981    0.0000 C   0  0  0  0  0  0  0  0  0  0  0  0
   -5.2500    3.8971    0.0000 C   0  0  0  0  0  0  0  0  0  0  0  0
   -6.0000    5.1962    0.0000 C   0  0  0  0  0  0  0  0  0  0  0  0
   -7.5000    5.1962    0.0000 C   0  0  0  0  0  0  0  0  0  0  0  0
   -8.2500    6.4952    0.0000 N   0  0  0  0  0  0  0  0  0  0  0  0
   -7.5000    7.7942    0.0000 C   0  0  0  0  0  0  0  0  0  0  0  0
   -6.0000    7.7942    0.0000 O   0  0  0  0  0  0  0  0  0  0  0  0
   -8.2500    9.0933    0.0000 C   0  0  0  0  0  0  0  0  0  0  0  0
   -7.5000   10.3923    0.0000 C   0  0  0  0  0  0  0  0  0  0  0  0
   -8.2500   11.6913    0.0000 C   0  0  0  0  0  0  0  0  0  0  0  0
   -9.7500   11.6913    0.0000 C   0  0  0  0  0  0  0  0  0  0  0  0
  -10.5000   10.3923    0.0000 C   0  0  0  0  0  0  0  0  0  0  0  0
   -9.7500    9.0933    0.0000 C   0  0  0  0  0  0  0  0  0  0  0  0
   -8.2500    3.8971    0.0000 C   0  0  0  0  0  0  0  0  0  0  0  0
   -7.5000    2.5981    0.0000 C   0  0  0  0  0  0  0  0  0  0  0  0
   -0.7500    1.2990    0.0000 C   0  0  0  0  0  0  0  0  0  0  0  0
    0.7500    1.2990    0.0000 C   0  0  0  0  0  0  0  0  0  0  0  0
  1  2  1  0
  2  3  2  0
  3  4  1  0
  4  5  2  0
  5  6  1  0
  6  7  1  0
  7  8  2  0
  7  9  1  0
  9 10  1  0
 10 11  2  0
 11 12  1  0
 12 13  2  0
 13 14  1  0
 14 15  1  0
 15 16  2  0
 15 17  1  0
 17 18  2  0
 18 19  1  0
 19 20  2  0
 20 21  1  0
 21 22  2  0
 13 23  1  0
 23 24  2  0
  5 25  1  0
 25 26  2  0
 26  2  1  0
 24 10  1  0
 22 17  1  0
M  END
>  <Title>  (67) 
idAACOgen4

$$$$

     RDKit          2D

 78 84  0  0  0  0  0  0  0  0999 V2000
    9.8311   -8.3362    0.0000 C   0  0  0  0  0  0  0  0  0  0  0  0
    8.7164   -7.3325    0.0000 C   0  0  0  0  0  0  0  0  0  0  0  0
    7.6017   -6.3288    0.0000 C   0  0  0  0  0  0  0  0  0  0  0  0
    9.7201   -6.2178    0.0000 C   0  0  0  0  0  0  0  0  0  0  0  0
    7.7127   -8.4472    0.0000 O   0  0  0  0  0  0  0  0  0  0  0  0
    6.2455   -8.1353    0.0000 C   0  0  0  0  0  0  0  0  0  0  0  0
    5.7820   -6.7088    0.0000 O   0  0  0  0  0  0  0  0  0  0  0  0
    5.2418   -9.2501    0.0000 N   0  0  0  0  0  0  0  0  0  0  0  0
    5.5537  -10.7173    0.0000 C   0  0  0  0  0  0  0  0  0  0  0  0
    4.2546  -11.4673    0.0000 C   0  0  0  0  0  0  0  0  0  0  0  0
    3.1399  -10.4636    0.0000 C   0  0  0  0  0  0  0  0  0  0  0  0
    3.7500   -9.0933    0.0000 C   0  0  0  0  0  0  0  0  0  0  0  0
    3.0000   -7.7942    0.0000 C   0  0  0  0  0  0  0  0  0  0  0  0
    2.2265   -7.9871    0.0000 O   0  0  0  0  0  0  0  0  0  0  0  0
    3.7500   -6.4952    0.0000 N   0  0  0  0  0  0  0  0  0  0  0  0
    3.0000   -5.1962    0.0000 C   0  0  0  0  0  0  0  0  0  0  0  0
    3.7500   -3.8971    0.0000 C   0  0  0  0  0  0  0  0  0  0  0  0
    5.2500   -3.8971    0.0000 C   0  0  0  0  0  0  0  0  0  0  0  0
    6.0000   -2.5981    0.0000 C   0  0  0  0  0  0  0  0  0  0  0  0
    7.5000   -2.5981    0.0000 C   0  0  0  0  0  0  0  0  0  0  0  0
    8.2500   -3.8971    0.0000 C   0  0  0  0  0  0  0  0  0  0  0  0
    7.5000   -5.1962    0.0000 C   0  0  0  0  0  0  0  0  0  0  0  0
    6.0000   -5.1962    0.0000 C   0  0  0  0  0  0  0  0  0  0  0  0
    1.5000   -5.1962    0.0000 C   0  0  0  0  0  0  0  0  0  0  0  0
    1.0866   -3.7542    0.0000 O   0  0  0  0  0  0  0  0  0  0  0  0
    0.7500   -6.4952    0.0000 C   0  0  0  0  0  0  0  0  0  0  0  0
    1.5000   -7.7942    0.0000 C   0  0  0  0  0  0  0  0  0  0  0  0
    0.7500   -9.0933    0.0000 C   0  0  0  0  0  0  0  0  0  0  0  0
   -0.7500   -9.0933    0.0000 C   0  0  0  0  0  0  0  0  0  0  0  0
   -1.5000  -10.3923    0.0000 C   0  0  0  0  0  0  0  0  0  0  0  0
   -0.7500  -11.6913    0.0000 C   0  0  0  0  0  0  0  0  0  0  0  0
    0.7500  -11.6913    0.0000 C   0  0  0  0  0  0  0  0  0  0  0  0
    1.5000  -10.3923    0.0000 C   0  0  0  0  0  0  0  0  0  0  0  0
   -0.7500   -6.4952    0.0000 N   0  0  0  0  0  0  0  0  0  0  0  0
   -1.5000   -7.7942    0.0000 C   0  0  0  0  0  0  0  0  0  0  0  0
   -1.0866   -9.2361    0.0000 O   0  0  0  0  0  0  0  0  0  0  0  0
   -3.0000   -7.7942    0.0000 C   0  0  0  0  0  0  0  0  0  0  0  0
   -3.7500   -9.0933    0.0000 C   0  0  0  0  0  0  0  0  0  0  0  0
   -5.2500   -9.0933    0.0000 C   0  0  0  0  0  0  0  0  0  0  0  0
   -6.0000   -7.7942    0.0000 C   0  0  0  0  0  0  0  0  0  0  0  0
   -7.5000   -7.7942    0.0000 C   0  0  0  0  0  0  0  0  0  0  0  0
   -8.2500   -9.0933    0.0000 C   0  0  0  0  0  0  0  0  0  0  0  0
   -7.5000  -10.3923    0.0000 C   0  0  0  0  0  0  0  0  0  0  0  0
   -6.0000  -10.3923    0.0000 C   0  0  0  0  0  0  0  0  0  0  0  0
   -3.7500   -6.4952    0.0000 N   0  0  0  0  0  0  0  0  0  0  0  0
   -5.2500   -6.4952    0.0000 C   0  0  0  0  0  0  0  0  0  0  0  0
   -6.2920   -7.5741    0.0000 O   0  0  0  0  0  0  0  0  0  0  0  0
   -6.0000   -5.1962    0.0000 C   0  0  0  0  0  0  0  0  0  0  0  0
   -7.5000   -5.1962    0.0000 C   0  0  0  0  0  0  0  0  0  0  0  0
   -8.2500   -3.8971    0.0000 C   0  0  0  0  0  0  0  0  0  0  0  0
   -7.5000   -2.5981    0.0000 C   0  0  0  0  0  0  0  0  0  0  0  0
   -8.2500   -1.2990    0.0000 C   0  0  0  0  0  0  0  0  0  0  0  0
   -9.7500   -1.2990    0.0000 C   0  0  0  0  0  0  0  0  0  0  0  0
  -10.5000   -2.5981    0.0000 C   0  0  0  0  0  0  0  0  0  0  0  0
   -9.7500   -3.8971    0.0000 C   0  0  0  0  0  0  0  0  0  0  0  0
   -5.2500   -3.8971    0.0000 N   0  0  0  0  0  0  0  0  0  0  0  0
   -6.0000   -2.5981    0.0000 C   0  0  0  0  0  0  0  0  0  0  0  0
   -7.4554   -2.2351    0.0000 O   0  0  0  0  0  0  0  0  0  0  0  0
   -5.2500   -1.2990    0.0000 C   0  0  0  0  0  0  0  0  0  0  0  0
   -6.0000   -0.0000    0.0000 C   0  0  0  0  0  0  0  0  0  0  0  0
   -5.2500    1.2990    0.0000 C   0  0  0  0  0  0  0  0  0  0  0  0
   -3.7500    1.2990    0.0000 C   0  0  0  0  0  0  0  0  0  0  0  0
   -3.0000    2.5981    0.0000 C   0  0  0  0  0  0  0  0  0  0  0  0
   -3.7500    3.8971    0.0000 C   0  0  0  0  0  0  0  0  0  0  0  0
   -5.2500    3.8971    0.0000 C   0  0  0  0  0  0  0  0  0  0  0  0
   -6.0000    2.5981    0.0000 C   0  0  0  0  0  0  0  0  0  0  0  0
   -3.7500   -1.2990    0.0000 N   0  0  0  0  0  0  0  0  0  0  0  0
   -3.0000   -2.5981    0.0000 C   0  0  0  0  0  0  0  0  0  0  0  0
   -3.7500   -3.8971    0.0000 O   0  0  0  0  0  0  0  0  0  0  0  0
   -1.5000   -2.5981    0.0000 C   0  0  0  0  0  0  0  0  0  0  0  0
   -0.7500   -1.2990    0.0000 N   0  0  0  0  0  0  0  0  0  0  0  0
   -0.7500   -3.8971    0.0000 C   0  0  0  0  0  0  0  0  0  0  0  0
    0.7500   -3.8971    0.0000 C   0  0  0  0  0  0  0  0  0  0  0  0
    1.5000   -5.1962    0.0000 C   0  0  0  0  0  0  0  0  0  0  0  0
    3.0000   -5.1962    0.0000 C   0  0  0  0  0  0  0  0  0  0  0  0
    3.7500   -3.8971    0.0000 C   0  0  0  0  0  0  0  0  0  0  0  0
    3.0000   -2.5981    0.0000 C   0  0  0  0  0  0  0  0  0  0  0  0
    1.5000   -2.5981    0.0000 C   0  0  0  0  0  0  0  0  0  0  0  0
  1  2  1  0
  2  3  1  0
  2  4  1  0
  2  5  1  0
  5  6  1  0
  6  7  2  0
  6  8  1  0
  8  9  1  0
  9 10  1  0
 10 11  1  0
 11 12  1  0
 12 13  1  0
 13 14  2  0
 13 15  1  0
 15 16  1  0
 16 17  1  0
 17 18  1  0
 18 19  2  0
 19 20  1  0
 20 21  2  0
 21 22  1  0
 22 23  2  0
 16 24  1  0
 24 25  1  0
 24 26  1  0
 26 27  1  0
 27 28  1  0
 28 29  2  0
 29 30  1  0
 30 31  2  0
 31 32  1  0
 32 33  2  0
 26 34  1  0
 34 35  1  0
 35 36  2  0
 35 37  1  0
 37 38  1  0
 38 39  1  0
 39 40  2  0
 40 41  1  0
 41 42  2  0
 42 43  1  0
 43 44  2  0
 37 45  1  0
 45 46  1  0
 46 47  2  0
 46 48  1  0
 48 49  1  0
 49 50  1  0
 50 51  2  0
 51 52  1  0
 52 53  2  0
 53 54  1  0
 54 55  2  0
 48 56  1  0
 56 57  1  0
 57 58  2  0
 57 59  1  0
 59 60  1  0
 60 61  1  0
 61 62  2  0
 62 63  1  0
 63 64  2  0
 64 65  1  0
 65 66  2  0
 59 67  1  0
 67 68  1  0
 68 69  2  0
 68 70  1  0
 70 71  1  0
 70 72  1  0
 72 73  1  0
 73 74  2  0
 74 75  1  0
 75 76  2  0
 76 77  1  0
 77 78  2  0
 12  8  1  0
 23 18  1  0
 33 28  1  0
 44 39  1  0
 55 50  1  0
 66 61  1  0
 78 73  1  0
M  END
>  <Title>  (68) 
idAACPgen4

$$$$

     RDKit          2D

 20 23  0  0  0  0  0  0  0  0999 V2000
   -0.7500   -3.8971    0.0000 O   0  0  0  0  0  0  0  0  0  0  0  0
    0.7500   -3.8971    0.0000 C   0  0  0  0  0  0  0  0  0  0  0  0
    1.5000   -5.1962    0.0000 N   0  0  0  0  0  0  0  0  0  0  0  0
    0.7500   -6.4952    0.0000 C   0  0  0  0  0  0  0  0  0  0  0  0
   -0.7500   -6.4952    0.0000 C   0  0  0  0  0  0  0  0  0  0  0  0
   -1.5000   -7.7942    0.0000 C   0  0  0  0  0  0  0  0  0  0  0  0
   -0.7500   -9.0933    0.0000 C   0  0  0  0  0  0  0  0  0  0  0  0
    0.7500   -9.0933    0.0000 C   0  0  0  0  0  0  0  0  0  0  0  0
    1.5000   -7.7942    0.0000 C   0  0  0  0  0  0  0  0  0  0  0  0
    1.5000   -2.5981    0.0000 N   0  0  0  0  0  0  0  0  0  0  0  0
    0.7500   -1.2990    0.0000 C   0  0  0  0  0  0  0  0  0  0  0  0
    1.5000    0.0000    0.0000 C   0  0  0  0  0  0  0  0  0  0  0  0
    0.7500    1.2990    0.0000 C   0  0  0  0  0  0  0  0  0  0  0  0
   -0.7500    1.2990    0.0000 C   0  0  0  0  0  0  0  0  0  0  0  0
   -1.5000    0.0000    0.0000 C   0  0  0  0  0  0  0  0  0  0  0  0
    1.7010   -0.7500    0.0000 C   0  0  0  0  0  0  0  0  0  0  0  0
    3.0000   -0.0000    0.0000 C   0  0  0  0  0  0  0  0  0  0  0  0
    2.2500    1.2990    0.0000 C   0  0  0  0  0  0  0  0  0  0  0  0
    2.2500   -1.2990    0.0000 C   0  0  0  0  0  0  0  0  0  0  0  0
   -0.7500   -1.2990    0.0000 C   0  0  0  0  0  0  0  0  0  0  0  0
  1  2  2  0
  2  3  1  0
  3  4  1  0
  4  5  2  0
  5  6  1  0
  6  7  2  0
  7  8  1  0
  8  9  2  0
  2 10  1  0
 10 11  1  0
 11 12  1  0
 12 13  1  0
 13 14  1  0
 14 15  1  0
 15 16  1  0
 16 17  1  0
 17 18  1  0
 17 19  1  0
 15 20  1  0
  9  4  1  0
 19 11  1  0
 20 11  1  0
 18 13  1  0
M  END
>  <Title>  (69) 
idAACQgen4

$$$$

     RDKit          2D

 25 27  0  0  0  0  0  0  0  0999 V2000
    3.0000   -5.1962    0.0000 O   0  0  0  0  0  0  0  0  0  0  0  0
    1.5000   -5.1962    0.0000 C   0  0  0  0  0  0  0  0  0  0  0  0
    0.7500   -6.4952    0.0000 O   0  0  0  0  0  0  0  0  0  0  0  0
    0.7500   -3.8971    0.0000 C   0  0  0  0  0  0  0  0  0  0  0  0
    1.5000   -2.5981    0.0000 C   0  0  0  0  0  0  0  0  0  0  0  0
    0.7500   -1.2990    0.0000 C   0  0  0  0  0  0  0  0  0  0  0  0
    1.5000    0.0000    0.0000 C   0  0  0  0  0  0  0  0  0  0  0  0
    0.7500    1.2990    0.0000 C   0  0  0  0  0  0  0  0  0  0  0  0
   -0.7500    1.2990    0.0000 C   0  0  0  0  0  0  0  0  0  0  0  0
   -1.5000    0.0000    0.0000 C   0  0  0  0  0  0  0  0  0  0  0  0
   -0.7500   -1.2990    0.0000 C   0  0  0  0  0  0  0  0  0  0  0  0
   -0.7500   -3.8971    0.0000 N   0  0  0  0  0  0  0  0  0  0  0  0
   -1.5000   -5.1962    0.0000 C   0  0  0  0  0  0  0  0  0  0  0  0
   -0.7500   -6.4952    0.0000 O   0  0  0  0  0  0  0  0  0  0  0  0
   -3.0000   -5.1962    0.0000 C   0  0  0  0  0  0  0  0  0  0  0  0
   -3.8817   -6.4097    0.0000 C   0  0  0  0  0  0  0  0  0  0  0  0
   -5.3083   -5.9462    0.0000 C   0  0  0  0  0  0  0  0  0  0  0  0
   -5.3083   -4.4462    0.0000 C   0  0  0  0  0  0  0  0  0  0  0  0
   -3.8817   -3.9826    0.0000 C   0  0  0  0  0  0  0  0  0  0  0  0
   -3.4182   -2.5560    0.0000 C   0  0  0  0  0  0  0  0  0  0  0  0
   -1.9509   -2.2442    0.0000 C   0  0  0  0  0  0  0  0  0  0  0  0
   -1.4874   -0.8176    0.0000 C   0  0  0  0  0  0  0  0  0  0  0  0
   -2.4911    0.2971    0.0000 C   0  0  0  0  0  0  0  0  0  0  0  0
   -3.9583   -0.0147    0.0000 C   0  0  0  0  0  0  0  0  0  0  0  0
   -4.4218   -1.4413    0.0000 C   0  0  0  0  0  0  0  0  0  0  0  0
  1  2  2  0
  2  3  1  0
  2  4  1  0
  4  5  1  0
  5  6  1  0
  6  7  2  0
  7  8  1  0
  8  9  2  0
  9 10  1  0
 10 11  2  0
  4 12  1  0
 12 13  1  0
 13 14  2  0
 13 15  1  0
 15 16  1  0
 16 17  1  0
 17 18  1  0
 18 19  1  0
 19 20  1  0
 20 21  2  0
 21 22  1  0
 22 23  2  0
 23 24  1  0
 24 25  2  0
 11  6  1  0
 19 15  1  0
 25 20  1  0
M  END
>  <Title>  (70) 
idAACRgen4

$$$$

     RDKit          2D

 58 63  0  0  0  0  0  0  0  0999 V2000
    0.3360    3.2626    0.0000 C   0  0  0  0  0  0  0  0  0  0  0  0
    1.0860    4.5616    0.0000 C   0  0  0  0  0  0  0  0  0  0  0  0
    2.5860    4.5616    0.0000 C   0  0  0  0  0  0  0  0  0  0  0  0
    0.3360    5.8606    0.0000 C   0  0  0  0  0  0  0  0  0  0  0  0
    1.0860    7.1597    0.0000 N   0  0  0  0  0  0  0  0  0  0  0  0
    0.3360    8.4587    0.0000 C   0  0  0  0  0  0  0  0  0  0  0  0
   -1.1640    8.4587    0.0000 C   0  0  0  0  0  0  0  0  0  0  0  0
   -1.9140    7.1597    0.0000 O   0  0  0  0  0  0  0  0  0  0  0  0
   -1.9140    9.7578    0.0000 C   0  0  0  0  0  0  0  0  0  0  0  0
   -1.1640   11.0568    0.0000 C   0  0  0  0  0  0  0  0  0  0  0  0
    0.3360   11.0568    0.0000 C   0  0  0  0  0  0  0  0  0  0  0  0
    1.0860    9.7578    0.0000 C   0  0  0  0  0  0  0  0  0  0  0  0
    2.5860    9.7578    0.0000 C   0  0  0  0  0  0  0  0  0  0  0  0
    3.3360   11.0568    0.0000 C   0  0  0  0  0  0  0  0  0  0  0  0
    2.5860   12.3558    0.0000 C   0  0  0  0  0  0  0  0  0  0  0  0
    1.0860   12.3558    0.0000 C   0  0  0  0  0  0  0  0  0  0  0  0
   -3.4140    9.7578    0.0000 N   0  0  0  0  0  0  0  0  0  0  0  0
   -4.1640    8.4587    0.0000 C   0  0  0  0  0  0  0  0  0  0  0  0
   -3.4140    7.1597    0.0000 O   0  0  0  0  0  0  0  0  0  0  0  0
   -5.6640    8.4587    0.0000 C   0  0  0  0  0  0  0  0  0  0  0  0
   -6.4140    9.7578    0.0000 C   0  0  0  0  0  0  0  0  0  0  0  0
   -5.6640   11.0568    0.0000 C   0  0  0  0  0  0  0  0  0  0  0  0
   -4.1640   11.0568    0.0000 C   0  0  0  0  0  0  0  0  0  0  0  0
   -3.4140   12.3558    0.0000 C   0  0  0  0  0  0  0  0  0  0  0  0
   -4.1640   13.6549    0.0000 C   0  0  0  0  0  0  0  0  0  0  0  0
   -5.6640   13.6549    0.0000 C   0  0  0  0  0  0  0  0  0  0  0  0
   -6.4140   12.3558    0.0000 C   0  0  0  0  0  0  0  0  0  0  0  0
   -6.4140    7.1597    0.0000 N   0  0  0  0  0  0  0  0  0  0  0  0
   -5.6640    5.8606    0.0000 C   0  0  0  0  0  0  0  0  0  0  0  0
   -4.1640    5.8606    0.0000 O   0  0  0  0  0  0  0  0  0  0  0  0
   -6.4140    4.5616    0.0000 C   0  0  0  0  0  0  0  0  0  0  0  0
   -7.9140    4.5616    0.0000 C   0  0  0  0  0  0  0  0  0  0  0  0
   -8.6640    5.8606    0.0000 C   0  0  0  0  0  0  0  0  0  0  0  0
  -10.1557    6.0174    0.0000 C   0  0  0  0  0  0  0  0  0  0  0  0
  -10.4676    7.4847    0.0000 C   0  0  0  0  0  0  0  0  0  0  0  0
   -9.1686    8.2347    0.0000 C   0  0  0  0  0  0  0  0  0  0  0  0
   -8.0539    7.2310    0.0000 C   0  0  0  0  0  0  0  0  0  0  0  0
   -5.6640    3.2626    0.0000 N   0  0  0  0  0  0  0  0  0  0  0  0
   -4.1640    3.2626    0.0000 C   0  0  0  0  0  0  0  0  0  0  0  0
   -3.4140    4.5616    0.0000 O   0  0  0  0  0  0  0  0  0  0  0  0
   -3.4140    1.9635    0.0000 O   0  0  0  0  0  0  0  0  0  0  0  0
   -4.1640    0.6645    0.0000 C   0  0  0  0  0  0  0  0  0  0  0  0
   -5.6557    0.5077    0.0000 C   0  0  0  0  0  0  0  0  0  0  0  0
   -5.9676   -0.9595    0.0000 O   0  0  0  0  0  0  0  0  0  0  0  0
   -4.6686   -1.7095    0.0000 C   0  0  0  0  0  0  0  0  0  0  0  0
   -4.0585   -3.0798    0.0000 O   0  0  0  0  0  0  0  0  0  0  0  0
   -2.5667   -2.9231    0.0000 C   0  0  0  0  0  0  0  0  0  0  0  0
   -2.2548   -1.4558    0.0000 C   0  0  0  0  0  0  0  0  0  0  0  0
   -3.5539   -0.7058    0.0000 C   0  0  0  0  0  0  0  0  0  0  0  0
    2.5860    7.1597    0.0000 S   0  0  0  0  0  0  0  0  0  0  0  0
    2.5860    8.6597    0.0000 O   0  0  0  0  0  0  0  0  0  0  0  0
    2.5860    5.6597    0.0000 O   0  0  0  0  0  0  0  0  0  0  0  0
    4.0860    7.1597    0.0000 C   0  0  0  0  0  0  0  0  0  0  0  0
    4.8360    8.4587    0.0000 C   0  0  0  0  0  0  0  0  0  0  0  0
    6.3360    8.4587    0.0000 C   0  0  0  0  0  0  0  0  0  0  0  0
    7.0860    7.1597    0.0000 C   0  0  0  0  0  0  0  0  0  0  0  0
    6.3360    5.8606    0.0000 C   0  0  0  0  0  0  0  0  0  0  0  0
    4.8360    5.8606    0.0000 C   0  0  0  0  0  0  0  0  0  0  0  0
  1  2  1  0
  2  3  1  0
  2  4  1  0
  4  5  1  0
  5  6  1  0
  6  7  1  0
  7  8  1  0
  7  9  1  0
  9 10  1  0
 10 11  1  0
 11 12  2  0
 12 13  1  0
 13 14  2  0
 14 15  1  0
 15 16  2  0
  9 17  1  0
 17 18  1  0
 18 19  2  0
 18 20  1  0
 20 21  1  0
 21 22  1  0
 22 23  2  0
 23 24  1  0
 24 25  2  0
 25 26  1  0
 26 27  2  0
 20 28  1  0
 28 29  1  0
 29 30  2  0
 29 31  1  0
 31 32  1  0
 32 33  1  0
 33 34  1  0
 34 35  1  0
 35 36  1  0
 36 37  1  0
 31 38  1  0
 38 39  1  0
 39 40  2  0
 39 41  1  0
 41 42  1  0
 42 43  1  0
 43 44  1  0
 44 45  1  0
 45 46  1  0
 46 47  1  0
 47 48  1  0
 48 49  1  0
  5 50  1  0
 50 51  2  0
 50 52  2  0
 50 53  1  0
 53 54  2  0
 54 55  1  0
 55 56  2  0
 56 57  1  0
 57 58  2  0
 16 11  1  0
 27 22  1  0
 37 33  1  0
 49 42  1  0
 58 53  1  0
 49 45  1  0
M  END
>  <Title>  (71) 
idAACSgen4

$$$$

     RDKit          2D

 61 65  0  0  0  0  0  0  0  0999 V2000
   12.7500   -1.2990    0.0000 C   0  0  0  0  0  0  0  0  0  0  0  0
   13.5000   -0.0000    0.0000 C   0  0  0  0  0  0  0  0  0  0  0  0
   15.0000   -0.0000    0.0000 C   0  0  0  0  0  0  0  0  0  0  0  0
   12.7500    1.2990    0.0000 C   0  0  0  0  0  0  0  0  0  0  0  0
   13.5000    2.5981    0.0000 N   0  0  0  0  0  0  0  0  0  0  0  0
   12.7500    3.8971    0.0000 S   0  0  0  0  0  0  0  0  0  0  0  0
   14.0490    4.6471    0.0000 O   0  0  0  0  0  0  0  0  0  0  0  0
   11.4510    3.1471    0.0000 O   0  0  0  0  0  0  0  0  0  0  0  0
   12.0000    5.1962    0.0000 C   0  0  0  0  0  0  0  0  0  0  0  0
   10.5000    5.1962    0.0000 C   0  0  0  0  0  0  0  0  0  0  0  0
    9.7500    6.4952    0.0000 C   0  0  0  0  0  0  0  0  0  0  0  0
   10.5000    7.7942    0.0000 C   0  0  0  0  0  0  0  0  0  0  0  0
   12.0000    7.7942    0.0000 C   0  0  0  0  0  0  0  0  0  0  0  0
   12.7500    6.4952    0.0000 C   0  0  0  0  0  0  0  0  0  0  0  0
   11.2500    1.2990    0.0000 C   0  0  0  0  0  0  0  0  0  0  0  0
   10.5000    2.5981    0.0000 O   0  0  0  0  0  0  0  0  0  0  0  0
   10.5000   -0.0000    0.0000 N   0  0  0  0  0  0  0  0  0  0  0  0
    9.0000   -0.0000    0.0000 C   0  0  0  0  0  0  0  0  0  0  0  0
    8.2500   -1.2990    0.0000 C   0  0  0  0  0  0  0  0  0  0  0  0
    6.7500   -1.2990    0.0000 C   0  0  0  0  0  0  0  0  0  0  0  0
    6.0000   -2.5981    0.0000 C   0  0  0  0  0  0  0  0  0  0  0  0
    4.5000   -2.5981    0.0000 C   0  0  0  0  0  0  0  0  0  0  0  0
    3.7500   -1.2990    0.0000 C   0  0  0  0  0  0  0  0  0  0  0  0
    4.5000    0.0000    0.0000 C   0  0  0  0  0  0  0  0  0  0  0  0
    6.0000   -0.0000    0.0000 C   0  0  0  0  0  0  0  0  0  0  0  0
    8.2500    1.2990    0.0000 C   0  0  0  0  0  0  0  0  0  0  0  0
    9.0000    2.5981    0.0000 O   0  0  0  0  0  0  0  0  0  0  0  0
    6.7500    1.2990    0.0000 C   0  0  0  0  0  0  0  0  0  0  0  0
    6.0000    2.5981    0.0000 C   0  0  0  0  0  0  0  0  0  0  0  0
    6.7500    3.8971    0.0000 C   0  0  0  0  0  0  0  0  0  0  0  0
    6.0000    5.1962    0.0000 C   0  0  0  0  0  0  0  0  0  0  0  0
    6.7500    6.4952    0.0000 C   0  0  0  0  0  0  0  0  0  0  0  0
    6.0000    7.7942    0.0000 C   0  0  0  0  0  0  0  0  0  0  0  0
    4.5000    7.7942    0.0000 C   0  0  0  0  0  0  0  0  0  0  0  0
    3.7500    6.4952    0.0000 C   0  0  0  0  0  0  0  0  0  0  0  0
    4.5000    5.1962    0.0000 C   0  0  0  0  0  0  0  0  0  0  0  0
    4.5000    2.5981    0.0000 C   0  0  0  0  0  0  0  0  0  0  0  0
    3.7500    1.2990    0.0000 O   0  0  0  0  0  0  0  0  0  0  0  0
    3.7500    3.8971    0.0000 N   0  0  0  0  0  0  0  0  0  0  0  0
    2.2500    3.8971    0.0000 C   0  0  0  0  0  0  0  0  0  0  0  0
    1.5000    2.5981    0.0000 C   0  0  0  0  0  0  0  0  0  0  0  0
    0.0000    2.5981    0.0000 C   0  0  0  0  0  0  0  0  0  0  0  0
   -0.7500    1.2990    0.0000 C   0  0  0  0  0  0  0  0  0  0  0  0
   -2.2500    1.2990    0.0000 C   0  0  0  0  0  0  0  0  0  0  0  0
   -3.0000    2.5981    0.0000 C   0  0  0  0  0  0  0  0  0  0  0  0
   -2.2500    3.8971    0.0000 C   0  0  0  0  0  0  0  0  0  0  0  0
   -0.7500    3.8971    0.0000 C   0  0  0  0  0  0  0  0  0  0  0  0
    1.5000    5.1962    0.0000 C   0  0  0  0  0  0  0  0  0  0  0  0
    2.2500    6.4952    0.0000 O   0  0  0  0  0  0  0  0  0  0  0  0
    0.0000    5.1962    0.0000 N   0  0  0  0  0  0  0  0  0  0  0  0
   -0.7500    6.4952    0.0000 C   0  0  0  0  0  0  0  0  0  0  0  0
   -2.2500    6.4952    0.0000 C   0  0  0  0  0  0  0  0  0  0  0  0
   -3.0000    7.7942    0.0000 C   0  0  0  0  0  0  0  0  0  0  0  0
   -4.5000    7.7942    0.0000 C   0  0  0  0  0  0  0  0  0  0  0  0
   -5.2500    9.0933    0.0000 C   0  0  0  0  0  0  0  0  0  0  0  0
   -4.5000   10.3923    0.0000 C   0  0  0  0  0  0  0  0  0  0  0  0
   -3.0000   10.3923    0.0000 C   0  0  0  0  0  0  0  0  0  0  0  0
   -2.2500    9.0933    0.0000 C   0  0  0  0  0  0  0  0  0  0  0  0
    0.0000    7.7942    0.0000 C   0  0  0  0  0  0  0  0  0  0  0  0
    1.5000    7.7942    0.0000 O   0  0  0  0  0  0  0  0  0  0  0  0
   -0.7500    9.0933    0.0000 O   0  0  0  0  0  0  0  0  0  0  0  0
  1  2  1  0
  2  3  1  0
  2  4  1  0
  4  5  1  0
  5  6  1  0
  6  7  2  0
  6  8  2  0
  6  9  1  0
  9 10  2  0
 10 11  1  0
 11 12  2  0
 12 13  1  0
 13 14  2  0
  4 15  1  0
 15 16  2  0
 15 17  1  0
 17 18  1  0
 18 19  1  0
 19 20  1  0
 20 21  2  0
 21 22  1  0
 22 23  2  0
 23 24  1  0
 24 25  2  0
 18 26  1  0
 26 27  1  0
 26 28  1  0
 28 29  1  0
 29 30  1  0
 30 31  1  0
 31 32  2  0
 32 33  1  0
 33 34  2  0
 34 35  1  0
 35 36  2  0
 29 37  1  0
 37 38  2  0
 37 39  1  0
 39 40  1  0
 40 41  1  0
 41 42  1  0
 42 43  2  0
 43 44  1  0
 44 45  2  0
 45 46  1  0
 46 47  2  0
 40 48  1  0
 48 49  2  0
 48 50  1  0
 50 51  1  0
 51 52  1  0
 52 53  1  0
 53 54  2  0
 54 55  1  0
 55 56  2  0
 56 57  1  0
 57 58  2  0
 51 59  1  0
 59 60  2  0
 59 61  1  0
 14  9  1  0
 25 20  1  0
 36 31  1  0
 47 42  1  0
 58 53  1  0
M  END
>  <Title>  (72) 
idAACTgen4

$$$$

     RDKit          2D

 33 35  0  0  0  0  0  0  0  0999 V2000
   -2.1962  -12.6821    0.0000 C   0  0  0  0  0  0  0  0  0  0  0  0
   -2.5081  -11.2149    0.0000 C   0  0  0  0  0  0  0  0  0  0  0  0
   -2.8199   -9.7476    0.0000 C   0  0  0  0  0  0  0  0  0  0  0  0
   -3.9753  -11.5267    0.0000 C   0  0  0  0  0  0  0  0  0  0  0  0
   -1.0409  -10.9030    0.0000 N   0  0  0  0  0  0  0  0  0  0  0  0
   -0.5773   -9.4764    0.0000 C   0  0  0  0  0  0  0  0  0  0  0  0
   -1.5810   -8.3617    0.0000 O   0  0  0  0  0  0  0  0  0  0  0  0
    0.8899   -9.1645    0.0000 C   0  0  0  0  0  0  0  0  0  0  0  0
    2.0046  -10.1682    0.0000 C   0  0  0  0  0  0  0  0  0  0  0  0
    3.3037   -9.4182    0.0000 C   0  0  0  0  0  0  0  0  0  0  0  0
    2.9918   -7.9510    0.0000 C   0  0  0  0  0  0  0  0  0  0  0  0
    1.5000   -7.7942    0.0000 C   0  0  0  0  0  0  0  0  0  0  0  0
    0.7500   -6.4952    0.0000 C   0  0  0  0  0  0  0  0  0  0  0  0
    1.5000   -5.1962    0.0000 N   0  0  0  0  0  0  0  0  0  0  0  0
    0.7500   -3.8971    0.0000 C   0  0  0  0  0  0  0  0  0  0  0  0
   -0.7500   -3.8971    0.0000 O   0  0  0  0  0  0  0  0  0  0  0  0
    1.5000   -2.5981    0.0000 C   0  0  0  0  0  0  0  0  0  0  0  0
    0.7500   -1.2990    0.0000 C   0  0  0  0  0  0  0  0  0  0  0  0
    1.5000    0.0000    0.0000 C   0  0  0  0  0  0  0  0  0  0  0  0
    0.7500    1.2990    0.0000 C   0  0  0  0  0  0  0  0  0  0  0  0
   -0.7500    1.2990    0.0000 C   0  0  0  0  0  0  0  0  0  0  0  0
   -1.5000    0.0000    0.0000 C   0  0  0  0  0  0  0  0  0  0  0  0
   -0.7500   -1.2990    0.0000 C   0  0  0  0  0  0  0  0  0  0  0  0
   -1.5000   -2.5981    0.0000 C   0  0  0  0  0  0  0  0  0  0  0  0
   -3.0000   -2.5981    0.0000 N   0  0  0  0  0  0  0  0  0  0  0  0
   -3.7500   -3.8971    0.0000 C   0  0  0  0  0  0  0  0  0  0  0  0
   -3.0000   -5.1962    0.0000 O   0  0  0  0  0  0  0  0  0  0  0  0
   -5.2500   -3.8971    0.0000 C   0  0  0  0  0  0  0  0  0  0  0  0
   -6.0000   -2.5981    0.0000 C   0  0  0  0  0  0  0  0  0  0  0  0
   -7.5000   -2.5981    0.0000 C   0  0  0  0  0  0  0  0  0  0  0  0
   -8.2500   -3.8971    0.0000 C   0  0  0  0  0  0  0  0  0  0  0  0
   -7.5000   -5.1962    0.0000 C   0  0  0  0  0  0  0  0  0  0  0  0
   -6.0000   -5.1962    0.0000 C   0  0  0  0  0  0  0  0  0  0  0  0
  1  2  1  0
  2  3  1  0
  2  4  1  0
  2  5  1  0
  5  6  1  0
  6  7  2  0
  6  8  1  0
  8  9  1  0
  9 10  1  0
 10 11  1  0
 11 12  1  0
 12 13  1  0
 13 14  1  0
 14 15  1  0
 15 16  2  0
 15 17  1  0
 17 18  1  0
 18 19  2  0
 19 20  1  0
 20 21  2  0
 21 22  1  0
 22 23  2  0
 23 24  1  0
 24 25  1  0
 25 26  1  0
 26 27  2  0
 26 28  1  0
 28 29  2  0
 29 30  1  0
 30 31  2  0
 31 32  1  0
 32 33  2  0
 12  8  1  0
 23 18  1  0
 33 28  1  0
M  END
>  <Title>  (73) 
idAACUgen4

$$$$

     RDKit          2D

 68 74  0  0  0  0  0  0  0  0999 V2000
    0.3360    3.2626    0.0000 C   0  0  0  0  0  0  0  0  0  0  0  0
    1.0860    4.5616    0.0000 C   0  0  0  0  0  0  0  0  0  0  0  0
    2.5860    4.5616    0.0000 C   0  0  0  0  0  0  0  0  0  0  0  0
    0.3360    5.8606    0.0000 C   0  0  0  0  0  0  0  0  0  0  0  0
    1.0860    7.1597    0.0000 N   0  0  0  0  0  0  0  0  0  0  0  0
    0.3360    8.4587    0.0000 C   0  0  0  0  0  0  0  0  0  0  0  0
   -1.1640    8.4587    0.0000 C   0  0  0  0  0  0  0  0  0  0  0  0
   -1.9140    7.1597    0.0000 O   0  0  0  0  0  0  0  0  0  0  0  0
   -1.9140    9.7578    0.0000 C   0  0  0  0  0  0  0  0  0  0  0  0
   -1.1640   11.0568    0.0000 C   0  0  0  0  0  0  0  0  0  0  0  0
    0.3360   11.0568    0.0000 C   0  0  0  0  0  0  0  0  0  0  0  0
    1.0860    9.7578    0.0000 C   0  0  0  0  0  0  0  0  0  0  0  0
    2.5860    9.7578    0.0000 C   0  0  0  0  0  0  0  0  0  0  0  0
    3.3360   11.0568    0.0000 C   0  0  0  0  0  0  0  0  0  0  0  0
    2.5860   12.3558    0.0000 C   0  0  0  0  0  0  0  0  0  0  0  0
    1.0860   12.3558    0.0000 C   0  0  0  0  0  0  0  0  0  0  0  0
   -3.4140    9.7578    0.0000 N   0  0  0  0  0  0  0  0  0  0  0  0
   -4.1640    8.4587    0.0000 C   0  0  0  0  0  0  0  0  0  0  0  0
   -3.4140    7.1597    0.0000 O   0  0  0  0  0  0  0  0  0  0  0  0
   -5.6640    8.4587    0.0000 C   0  0  0  0  0  0  0  0  0  0  0  0
   -6.4140    9.7578    0.0000 C   0  0  0  0  0  0  0  0  0  0  0  0
   -5.6640   11.0568    0.0000 C   0  0  0  0  0  0  0  0  0  0  0  0
   -4.1640   11.0568    0.0000 C   0  0  0  0  0  0  0  0  0  0  0  0
   -3.4140   12.3558    0.0000 C   0  0  0  0  0  0  0  0  0  0  0  0
   -4.1640   13.6549    0.0000 C   0  0  0  0  0  0  0  0  0  0  0  0
   -5.6640   13.6549    0.0000 C   0  0  0  0  0  0  0  0  0  0  0  0
   -6.4140   12.3558    0.0000 C   0  0  0  0  0  0  0  0  0  0  0  0
   -6.4140    7.1597    0.0000 N   0  0  0  0  0  0  0  0  0  0  0  0
   -5.6640    5.8606    0.0000 C   0  0  0  0  0  0  0  0  0  0  0  0
   -4.1640    5.8606    0.0000 O   0  0  0  0  0  0  0  0  0  0  0  0
   -6.4140    4.5616    0.0000 C   0  0  0  0  0  0  0  0  0  0  0  0
   -7.9140    4.5616    0.0000 C   0  0  0  0  0  0  0  0  0  0  0  0
   -8.6640    5.8606    0.0000 C   0  0  0  0  0  0  0  0  0  0  0  0
   -7.9140    7.1597    0.0000 C   0  0  0  0  0  0  0  0  0  0  0  0
   -8.6640    8.4587    0.0000 C   0  0  0  0  0  0  0  0  0  0  0  0
  -10.1640    8.4587    0.0000 C   0  0  0  0  0  0  0  0  0  0  0  0
  -10.9140    7.1597    0.0000 C   0  0  0  0  0  0  0  0  0  0  0  0
  -10.1640    5.8606    0.0000 C   0  0  0  0  0  0  0  0  0  0  0  0
   -5.6640    3.2626    0.0000 N   0  0  0  0  0  0  0  0  0  0  0  0
   -4.1640    3.2626    0.0000 C   0  0  0  0  0  0  0  0  0  0  0  0
   -3.4140    4.5616    0.0000 O   0  0  0  0  0  0  0  0  0  0  0  0
   -3.4140    1.9635    0.0000 O   0  0  0  0  0  0  0  0  0  0  0  0
   -4.1640    0.6645    0.0000 C   0  0  0  0  0  0  0  0  0  0  0  0
   -5.6557    0.5077    0.0000 C   0  0  0  0  0  0  0  0  0  0  0  0
   -5.9676   -0.9595    0.0000 O   0  0  0  0  0  0  0  0  0  0  0  0
   -4.6686   -1.7095    0.0000 C   0  0  0  0  0  0  0  0  0  0  0  0
   -4.0585   -3.0798    0.0000 O   0  0  0  0  0  0  0  0  0  0  0  0
   -2.5667   -2.9231    0.0000 C   0  0  0  0  0  0  0  0  0  0  0  0
   -2.2548   -1.4558    0.0000 C   0  0  0  0  0  0  0  0  0  0  0  0
   -3.5539   -0.7058    0.0000 C   0  0  0  0  0  0  0  0  0  0  0  0
    2.5860    7.1597    0.0000 S   0  0  0  0  0  0  0  0  0  0  0  0
    2.5860    8.6597    0.0000 O   0  0  0  0  0  0  0  0  0  0  0  0
    2.5860    5.6597    0.0000 O   0  0  0  0  0  0  0  0  0  0  0  0
    4.0860    7.1597    0.0000 C   0  0  0  0  0  0  0  0  0  0  0  0
    4.8360    8.4587    0.0000 C   0  0  0  0  0  0  0  0  0  0  0  0
    6.3360    8.4587    0.0000 C   0  0  0  0  0  0  0  0  0  0  0  0
    7.0860    7.1597    0.0000 C   0  0  0  0  0  0  0  0  0  0  0  0
    8.5860    7.1597    0.0000 N   0  0  0  0  0  0  0  0  0  0  0  0
    9.3360    8.4587    0.0000 C   0  0  0  0  0  0  0  0  0  0  0  0
    8.5860    9.7578    0.0000 O   0  0  0  0  0  0  0  0  0  0  0  0
   10.8360    8.4587    0.0000 C   0  0  0  0  0  0  0  0  0  0  0  0
   11.5860    9.7578    0.0000 C   0  0  0  0  0  0  0  0  0  0  0  0
   13.0860    9.7578    0.0000 C   0  0  0  0  0  0  0  0  0  0  0  0
   13.8360    8.4587    0.0000 C   0  0  0  0  0  0  0  0  0  0  0  0
   13.0860    7.1597    0.0000 C   0  0  0  0  0  0  0  0  0  0  0  0
   11.5860    7.1597    0.0000 C   0  0  0  0  0  0  0  0  0  0  0  0
    6.3360    5.8606    0.0000 C   0  0  0  0  0  0  0  0  0  0  0  0
    4.8360    5.8606    0.0000 C   0  0  0  0  0  0  0  0  0  0  0  0
  1  2  1  0
  2  3  1  0
  2  4  1  0
  4  5  1  0
  5  6  1  0
  6  7  1  0
  7  8  1  0
  7  9  1  0
  9 10  1  0
 10 11  1  0
 11 12  2  0
 12 13  1  0
 13 14  2  0
 14 15  1  0
 15 16  2  0
  9 17  1  0
 17 18  1  0
 18 19  2  0
 18 20  1  0
 20 21  1  0
 21 22  1  0
 22 23  2  0
 23 24  1  0
 24 25  2  0
 25 26  1  0
 26 27  2  0
 20 28  1  0
 28 29  1  0
 29 30  2  0
 29 31  1  0
 31 32  1  0
 32 33  1  0
 33 34  2  0
 34 35  1  0
 35 36  2  0
 36 37  1  0
 37 38  2  0
 31 39  1  0
 39 40  1  0
 40 41  2  0
 40 42  1  0
 42 43  1  0
 43 44  1  0
 44 45  1  0
 45 46  1  0
 46 47  1  0
 47 48  1  0
 48 49  1  0
 49 50  1  0
  5 51  1  0
 51 52  2  0
 51 53  2  0
 51 54  1  0
 54 55  2  0
 55 56  1  0
 56 57  2  0
 57 58  1  0
 58 59  1  0
 59 60  2  0
 59 61  1  0
 61 62  1  0
 62 63  1  0
 63 64  1  0
 64 65  1  0
 65 66  1  0
 57 67  1  0
 67 68  2  0
 16 11  1  0
 27 22  1  0
 38 33  1  0
 50 43  1  0
 68 54  1  0
 50 46  1  0
 66 61  1  0
M  END
>  <Title>  (74) 
idAACVgen4

$$$$

     RDKit          2D

 78 85  0  0  0  0  0  0  0  0999 V2000
   -3.4140    4.5616    0.0000 O   0  0  0  0  0  0  0  0  0  0  0  0
   -4.1640    3.2626    0.0000 C   0  0  0  0  0  0  0  0  0  0  0  0
   -5.6640    3.2626    0.0000 N   0  0  0  0  0  0  0  0  0  0  0  0
   -6.4140    4.5616    0.0000 C   0  0  0  0  0  0  0  0  0  0  0  0
   -7.9140    4.5616    0.0000 C   0  0  0  0  0  0  0  0  0  0  0  0
   -8.6640    5.8606    0.0000 C   0  0  0  0  0  0  0  0  0  0  0  0
   -7.9140    7.1597    0.0000 C   0  0  0  0  0  0  0  0  0  0  0  0
   -8.6640    8.4587    0.0000 C   0  0  0  0  0  0  0  0  0  0  0  0
  -10.1640    8.4587    0.0000 C   0  0  0  0  0  0  0  0  0  0  0  0
  -10.9140    7.1597    0.0000 C   0  0  0  0  0  0  0  0  0  0  0  0
  -10.1640    5.8606    0.0000 C   0  0  0  0  0  0  0  0  0  0  0  0
   -5.6640    5.8606    0.0000 C   0  0  0  0  0  0  0  0  0  0  0  0
   -4.1640    5.8606    0.0000 O   0  0  0  0  0  0  0  0  0  0  0  0
   -6.4140    7.1597    0.0000 N   0  0  0  0  0  0  0  0  0  0  0  0
   -5.6640    8.4587    0.0000 C   0  0  0  0  0  0  0  0  0  0  0  0
   -6.4140    9.7578    0.0000 C   0  0  0  0  0  0  0  0  0  0  0  0
   -5.6640   11.0568    0.0000 C   0  0  0  0  0  0  0  0  0  0  0  0
   -4.1640   11.0568    0.0000 C   0  0  0  0  0  0  0  0  0  0  0  0
   -3.4140   12.3558    0.0000 C   0  0  0  0  0  0  0  0  0  0  0  0
   -4.1640   13.6549    0.0000 C   0  0  0  0  0  0  0  0  0  0  0  0
   -5.6640   13.6549    0.0000 C   0  0  0  0  0  0  0  0  0  0  0  0
   -6.4140   12.3558    0.0000 C   0  0  0  0  0  0  0  0  0  0  0  0
   -4.1640    8.4587    0.0000 C   0  0  0  0  0  0  0  0  0  0  0  0
   -3.4140    7.1597    0.0000 O   0  0  0  0  0  0  0  0  0  0  0  0
   -3.4140    9.7578    0.0000 N   0  0  0  0  0  0  0  0  0  0  0  0
   -1.9140    9.7578    0.0000 C   0  0  0  0  0  0  0  0  0  0  0  0
   -1.1640   11.0568    0.0000 C   0  0  0  0  0  0  0  0  0  0  0  0
    0.3360   11.0568    0.0000 C   0  0  0  0  0  0  0  0  0  0  0  0
    1.0860    9.7578    0.0000 C   0  0  0  0  0  0  0  0  0  0  0  0
    2.5860    9.7578    0.0000 C   0  0  0  0  0  0  0  0  0  0  0  0
    3.3360   11.0568    0.0000 C   0  0  0  0  0  0  0  0  0  0  0  0
    2.5860   12.3558    0.0000 C   0  0  0  0  0  0  0  0  0  0  0  0
    1.0860   12.3558    0.0000 C   0  0  0  0  0  0  0  0  0  0  0  0
   -1.1640    8.4587    0.0000 C   0  0  0  0  0  0  0  0  0  0  0  0
   -1.9140    7.1597    0.0000 O   0  0  0  0  0  0  0  0  0  0  0  0
    0.3360    8.4587    0.0000 N   0  0  0  0  0  0  0  0  0  0  0  0
    1.0860    7.1597    0.0000 C   0  0  0  0  0  0  0  0  0  0  0  0
    0.3360    5.8606    0.0000 C   0  0  0  0  0  0  0  0  0  0  0  0
    1.0860    4.5616    0.0000 C   0  0  0  0  0  0  0  0  0  0  0  0
    2.5860    4.5616    0.0000 C   0  0  0  0  0  0  0  0  0  0  0  0
    3.3360    3.2626    0.0000 C   0  0  0  0  0  0  0  0  0  0  0  0
    2.5860    1.9635    0.0000 C   0  0  0  0  0  0  0  0  0  0  0  0
    1.0860    1.9635    0.0000 C   0  0  0  0  0  0  0  0  0  0  0  0
    0.3360    3.2626    0.0000 C   0  0  0  0  0  0  0  0  0  0  0  0
    2.5860    7.1597    0.0000 C   0  0  0  0  0  0  0  0  0  0  0  0
    3.3360    8.4587    0.0000 O   0  0  0  0  0  0  0  0  0  0  0  0
    3.3360    5.8606    0.0000 N   0  0  0  0  0  0  0  0  0  0  0  0
    4.8360    5.8606    0.0000 C   0  0  0  0  0  0  0  0  0  0  0  0
    5.5860    7.1597    0.0000 C   0  0  0  0  0  0  0  0  0  0  0  0
    7.0860    7.1597    0.0000 C   0  0  0  0  0  0  0  0  0  0  0  0
    7.8360    8.4587    0.0000 C   0  0  0  0  0  0  0  0  0  0  0  0
    9.3360    8.4587    0.0000 C   0  0  0  0  0  0  0  0  0  0  0  0
   10.0860    7.1597    0.0000 C   0  0  0  0  0  0  0  0  0  0  0  0
    9.3360    5.8606    0.0000 C   0  0  0  0  0  0  0  0  0  0  0  0
    7.8360    5.8606    0.0000 C   0  0  0  0  0  0  0  0  0  0  0  0
    5.5860    4.5616    0.0000 C   0  0  0  0  0  0  0  0  0  0  0  0
    4.8360    3.2626    0.0000 O   0  0  0  0  0  0  0  0  0  0  0  0
    7.0860    4.5616    0.0000 N   0  0  0  0  0  0  0  0  0  0  0  0
    7.8360    3.2626    0.0000 C   0  0  0  0  0  0  0  0  0  0  0  0
    9.3360    3.2626    0.0000 C   0  0  0  0  0  0  0  0  0  0  0  0
   10.0860    1.9635    0.0000 C   0  0  0  0  0  0  0  0  0  0  0  0
   11.5860    1.9635    0.0000 C   0  0  0  0  0  0  0  0  0  0  0  0
   12.3360    0.6645    0.0000 C   0  0  0  0  0  0  0  0  0  0  0  0
   11.5860   -0.6346    0.0000 C   0  0  0  0  0  0  0  0  0  0  0  0
   10.0860   -0.6346    0.0000 C   0  0  0  0  0  0  0  0  0  0  0  0
    9.3360    0.6645    0.0000 C   0  0  0  0  0  0  0  0  0  0  0  0
    7.0860    1.9635    0.0000 C   0  0  0  0  0  0  0  0  0  0  0  0
    5.5860    1.9635    0.0000 O   0  0  0  0  0  0  0  0  0  0  0  0
    7.8360    0.6645    0.0000 O   0  0  0  0  0  0  0  0  0  0  0  0
   -3.4140    1.9635    0.0000 O   0  0  0  0  0  0  0  0  0  0  0  0
   -4.1640    0.6645    0.0000 C   0  0  0  0  0  0  0  0  0  0  0  0
   -3.5539   -0.7058    0.0000 C   0  0  0  0  0  0  0  0  0  0  0  0
   -4.6686   -1.7095    0.0000 O   0  0  0  0  0  0  0  0  0  0  0  0
   -5.9676   -0.9595    0.0000 C   0  0  0  0  0  0  0  0  0  0  0  0
   -7.4594   -1.1163    0.0000 O   0  0  0  0  0  0  0  0  0  0  0  0
   -8.0695    0.2540    0.0000 C   0  0  0  0  0  0  0  0  0  0  0  0
   -6.9548    1.2577    0.0000 C   0  0  0  0  0  0  0  0  0  0  0  0
   -5.6557    0.5077    0.0000 C   0  0  0  0  0  0  0  0  0  0  0  0
  1  2  2  0
  2  3  1  0
  3  4  1  0
  4  5  1  0
  5  6  1  0
  6  7  2  0
  7  8  1  0
  8  9  2  0
  9 10  1  0
 10 11  2  0
  4 12  1  0
 12 13  2  0
 12 14  1  0
 14 15  1  0
 15 16  1  0
 16 17  1  0
 17 18  2  0
 18 19  1  0
 19 20  2  0
 20 21  1  0
 21 22  2  0
 15 23  1  0
 23 24  2  0
 23 25  1  0
 25 26  1  0
 26 27  1  0
 27 28  1  0
 28 29  2  0
 29 30  1  0
 30 31  2  0
 31 32  1  0
 32 33  2  0
 26 34  1  0
 34 35  2  0
 34 36  1  0
 36 37  1  0
 37 38  1  0
 38 39  1  0
 39 40  2  0
 40 41  1  0
 41 42  2  0
 42 43  1  0
 43 44  2  0
 37 45  1  0
 45 46  2  0
 45 47  1  0
 47 48  1  0
 48 49  1  0
 49 50  1  0
 50 51  2  0
 51 52  1  0
 52 53  2  0
 53 54  1  0
 54 55  2  0
 48 56  1  0
 56 57  2  0
 56 58  1  0
 58 59  1  0
 59 60  1  0
 60 61  1  0
 61 62  2  0
 62 63  1  0
 63 64  2  0
 64 65  1  0
 65 66  2  0
 59 67  1  0
 67 68  2  0
 67 69  1  0
  2 70  1  0
 70 71  1  0
 71 72  1  0
 72 73  1  0
 73 74  1  0
 74 75  1  0
 75 76  1  0
 76 77  1  0
 77 78  1  0
 11  6  1  0
 22 17  1  0
 33 28  1  0
 44 39  1  0
 55 50  1  0
 66 61  1  0
 78 71  1  0
 78 74  1  0
M  END
>  <Title>  (75) 
idAACWgen4

$$$$

     RDKit          2D

 70 75  0  0  0  0  0  0  0  0999 V2000
   -5.3849    0.4488    0.0000 C   0  0  0  0  0  0  0  0  0  0  0  0
   -3.9583   -0.0147    0.0000 C   0  0  0  0  0  0  0  0  0  0  0  0
   -2.5317   -0.4783    0.0000 C   0  0  0  0  0  0  0  0  0  0  0  0
   -3.4948    1.4118    0.0000 C   0  0  0  0  0  0  0  0  0  0  0  0
   -4.4218   -1.4413    0.0000 N   0  0  0  0  0  0  0  0  0  0  0  0
   -3.4182   -2.5560    0.0000 C   0  0  0  0  0  0  0  0  0  0  0  0
   -1.9509   -2.2442    0.0000 O   0  0  0  0  0  0  0  0  0  0  0  0
   -3.8817   -3.9826    0.0000 C   0  0  0  0  0  0  0  0  0  0  0  0
   -5.3083   -4.4462    0.0000 C   0  0  0  0  0  0  0  0  0  0  0  0
   -5.3083   -5.9462    0.0000 C   0  0  0  0  0  0  0  0  0  0  0  0
   -3.8817   -6.4097    0.0000 C   0  0  0  0  0  0  0  0  0  0  0  0
   -3.0000   -5.1962    0.0000 C   0  0  0  0  0  0  0  0  0  0  0  0
   -1.5000   -5.1962    0.0000 C   0  0  0  0  0  0  0  0  0  0  0  0
   -0.7500   -6.4952    0.0000 O   0  0  0  0  0  0  0  0  0  0  0  0
   -0.7500   -3.8971    0.0000 N   0  0  0  0  0  0  0  0  0  0  0  0
    0.7500   -3.8971    0.0000 C   0  0  0  0  0  0  0  0  0  0  0  0
    1.5000   -2.5981    0.0000 C   0  0  0  0  0  0  0  0  0  0  0  0
    0.7500   -1.2990    0.0000 C   0  0  0  0  0  0  0  0  0  0  0  0
    1.5000    0.0000    0.0000 C   0  0  0  0  0  0  0  0  0  0  0  0
    0.7500    1.2990    0.0000 C   0  0  0  0  0  0  0  0  0  0  0  0
   -0.7500    1.2990    0.0000 C   0  0  0  0  0  0  0  0  0  0  0  0
   -1.5000    0.0000    0.0000 C   0  0  0  0  0  0  0  0  0  0  0  0
   -0.7500   -1.2990    0.0000 C   0  0  0  0  0  0  0  0  0  0  0  0
    1.5000   -5.1962    0.0000 C   0  0  0  0  0  0  0  0  0  0  0  0
    3.0000   -5.1962    0.0000 O   0  0  0  0  0  0  0  0  0  0  0  0
    0.7500   -6.4952    0.0000 N   0  0  0  0  0  0  0  0  0  0  0  0
    1.5000   -7.7942    0.0000 C   0  0  0  0  0  0  0  0  0  0  0  0
    0.7500   -9.0933    0.0000 C   0  0  0  0  0  0  0  0  0  0  0  0
    1.5000  -10.3923    0.0000 C   0  0  0  0  0  0  0  0  0  0  0  0
    0.7500  -11.6913    0.0000 C   0  0  0  0  0  0  0  0  0  0  0  0
    1.5000  -12.9904    0.0000 C   0  0  0  0  0  0  0  0  0  0  0  0
    3.0000  -12.9904    0.0000 C   0  0  0  0  0  0  0  0  0  0  0  0
    3.7500  -11.6913    0.0000 C   0  0  0  0  0  0  0  0  0  0  0  0
    3.0000  -10.3923    0.0000 C   0  0  0  0  0  0  0  0  0  0  0  0
    3.0000   -7.7942    0.0000 C   0  0  0  0  0  0  0  0  0  0  0  0
    3.7500   -6.4952    0.0000 O   0  0  0  0  0  0  0  0  0  0  0  0
    3.7500   -9.0933    0.0000 N   0  0  0  0  0  0  0  0  0  0  0  0
    5.2500   -9.0933    0.0000 C   0  0  0  0  0  0  0  0  0  0  0  0
    6.0000  -10.3923    0.0000 C   0  0  0  0  0  0  0  0  0  0  0  0
    7.5000  -10.3923    0.0000 C   0  0  0  0  0  0  0  0  0  0  0  0
    8.2500  -11.6913    0.0000 C   0  0  0  0  0  0  0  0  0  0  0  0
    9.7500  -11.6913    0.0000 C   0  0  0  0  0  0  0  0  0  0  0  0
   10.5000  -10.3923    0.0000 C   0  0  0  0  0  0  0  0  0  0  0  0
    9.7500   -9.0933    0.0000 C   0  0  0  0  0  0  0  0  0  0  0  0
    8.2500   -9.0933    0.0000 C   0  0  0  0  0  0  0  0  0  0  0  0
    6.0000   -7.7942    0.0000 C   0  0  0  0  0  0  0  0  0  0  0  0
    5.2500   -6.4952    0.0000 O   0  0  0  0  0  0  0  0  0  0  0  0
    7.5000   -7.7942    0.0000 N   0  0  0  0  0  0  0  0  0  0  0  0
    8.2500   -6.4952    0.0000 C   0  0  0  0  0  0  0  0  0  0  0  0
    9.7500   -6.4952    0.0000 C   0  0  0  0  0  0  0  0  0  0  0  0
   10.5000   -5.1962    0.0000 C   0  0  0  0  0  0  0  0  0  0  0  0
   12.0000   -5.1962    0.0000 C   0  0  0  0  0  0  0  0  0  0  0  0
   12.7500   -3.8971    0.0000 C   0  0  0  0  0  0  0  0  0  0  0  0
   12.0000   -2.5981    0.0000 C   0  0  0  0  0  0  0  0  0  0  0  0
   10.5000   -2.5981    0.0000 C   0  0  0  0  0  0  0  0  0  0  0  0
    9.7500   -3.8971    0.0000 C   0  0  0  0  0  0  0  0  0  0  0  0
    7.5000   -5.1962    0.0000 C   0  0  0  0  0  0  0  0  0  0  0  0
    6.0000   -5.1962    0.0000 O   0  0  0  0  0  0  0  0  0  0  0  0
    8.2500   -3.8971    0.0000 N   0  0  0  0  0  0  0  0  0  0  0  0
    7.5000   -2.5981    0.0000 C   0  0  0  0  0  0  0  0  0  0  0  0
    8.2500   -1.2990    0.0000 C   0  0  0  0  0  0  0  0  0  0  0  0
    7.5000   -0.0000    0.0000 C   0  0  0  0  0  0  0  0  0  0  0  0
    8.2500    1.2990    0.0000 C   0  0  0  0  0  0  0  0  0  0  0  0
    7.5000    2.5981    0.0000 C   0  0  0  0  0  0  0  0  0  0  0  0
    6.0000    2.5981    0.0000 C   0  0  0  0  0  0  0  0  0  0  0  0
    5.2500    1.2990    0.0000 C   0  0  0  0  0  0  0  0  0  0  0  0
    6.0000    0.0000    0.0000 C   0  0  0  0  0  0  0  0  0  0  0  0
    6.0000   -2.5981    0.0000 C   0  0  0  0  0  0  0  0  0  0  0  0
    5.2500   -3.8971    0.0000 O   0  0  0  0  0  0  0  0  0  0  0  0
    5.2500   -1.2990    0.0000 O   0  0  0  0  0  0  0  0  0  0  0  0
  1  2  1  0
  2  3  1  0
  2  4  1  0
  2  5  1  0
  5  6  1  0
  6  7  2  0
  6  8  1  0
  8  9  1  0
  9 10  1  0
 10 11  1  0
 11 12  1  0
 12 13  1  0
 13 14  2  0
 13 15  1  0
 15 16  1  0
 16 17  1  0
 17 18  1  0
 18 19  2  0
 19 20  1  0
 20 21  2  0
 21 22  1  0
 22 23  2  0
 16 24  1  0
 24 25  2  0
 24 26  1  0
 26 27  1  0
 27 28  1  0
 28 29  1  0
 29 30  2  0
 30 31  1  0
 31 32  2  0
 32 33  1  0
 33 34  2  0
 27 35  1  0
 35 36  2  0
 35 37  1  0
 37 38  1  0
 38 39  1  0
 39 40  1  0
 40 41  2  0
 41 42  1  0
 42 43  2  0
 43 44  1  0
 44 45  2  0
 38 46  1  0
 46 47  2  0
 46 48  1  0
 48 49  1  0
 49 50  1  0
 50 51  1  0
 51 52  2  0
 52 53  1  0
 53 54  2  0
 54 55  1  0
 55 56  2  0
 49 57  1  0
 57 58  2  0
 57 59  1  0
 59 60  1  0
 60 61  1  0
 61 62  1  0
 62 63  2  0
 63 64  1  0
 64 65  2  0
 65 66  1  0
 66 67  2  0
 60 68  1  0
 68 69  2  0
 68 70  1  0
 12  8  1  0
 23 18  1  0
 34 29  1  0
 45 40  1  0
 56 51  1  0
 67 62  1  0
M  END
>  <Title>  (76) 
idAACXgen4

$$$$

     RDKit          2D

 54 58  0  0  0  0  0  0  0  0999 V2000
   -5.3000   -2.5721    0.0000 C   0  0  0  0  0  0  0  0  0  0  0  0
   -5.1432   -1.0803    0.0000 C   0  0  0  0  0  0  0  0  0  0  0  0
   -3.7729   -0.4702    0.0000 C   0  0  0  0  0  0  0  0  0  0  0  0
   -6.3568   -0.1986    0.0000 C   0  0  0  0  0  0  0  0  0  0  0  0
   -7.7271   -0.8087    0.0000 N   0  0  0  0  0  0  0  0  0  0  0  0
   -7.8839   -2.3005    0.0000 S   0  0  0  0  0  0  0  0  0  0  0  0
   -6.3921   -2.4573    0.0000 O   0  0  0  0  0  0  0  0  0  0  0  0
   -9.3757   -2.1437    0.0000 O   0  0  0  0  0  0  0  0  0  0  0  0
   -8.0407   -3.7923    0.0000 C   0  0  0  0  0  0  0  0  0  0  0  0
   -6.8271   -4.6740    0.0000 C   0  0  0  0  0  0  0  0  0  0  0  0
   -6.9839   -6.1658    0.0000 C   0  0  0  0  0  0  0  0  0  0  0  0
   -8.3543   -6.7759    0.0000 C   0  0  0  0  0  0  0  0  0  0  0  0
   -9.5678   -5.8942    0.0000 C   0  0  0  0  0  0  0  0  0  0  0  0
   -9.4110   -4.4024    0.0000 C   0  0  0  0  0  0  0  0  0  0  0  0
   -6.2000    1.2931    0.0000 C   0  0  0  0  0  0  0  0  0  0  0  0
   -4.7655    1.7317    0.0000 O   0  0  0  0  0  0  0  0  0  0  0  0
   -7.4135    2.1748    0.0000 N   0  0  0  0  0  0  0  0  0  0  0  0
   -7.2567    3.6666    0.0000 C   0  0  0  0  0  0  0  0  0  0  0  0
   -8.4702    4.5483    0.0000 C   0  0  0  0  0  0  0  0  0  0  0  0
   -9.8406    3.9382    0.0000 C   0  0  0  0  0  0  0  0  0  0  0  0
   -9.9973    2.4464    0.0000 C   0  0  0  0  0  0  0  0  0  0  0  0
  -11.3677    1.8363    0.0000 C   0  0  0  0  0  0  0  0  0  0  0  0
  -12.5812    2.7180    0.0000 C   0  0  0  0  0  0  0  0  0  0  0  0
  -12.4244    4.2098    0.0000 C   0  0  0  0  0  0  0  0  0  0  0  0
  -11.0541    4.8199    0.0000 C   0  0  0  0  0  0  0  0  0  0  0  0
   -5.8864    4.2767    0.0000 C   0  0  0  0  0  0  0  0  0  0  0  0
   -5.9126    5.7765    0.0000 O   0  0  0  0  0  0  0  0  0  0  0  0
   -4.6729    3.3950    0.0000 N   0  0  0  0  0  0  0  0  0  0  0  0
   -3.3025    4.0051    0.0000 C   0  0  0  0  0  0  0  0  0  0  0  0
   -3.1458    5.4969    0.0000 C   0  0  0  0  0  0  0  0  0  0  0  0
   -1.7754    6.1070    0.0000 C   0  0  0  0  0  0  0  0  0  0  0  0
   -1.6186    7.5988    0.0000 C   0  0  0  0  0  0  0  0  0  0  0  0
   -0.2483    8.2089    0.0000 C   0  0  0  0  0  0  0  0  0  0  0  0
    0.9652    7.3272    0.0000 C   0  0  0  0  0  0  0  0  0  0  0  0
    0.8084    5.8355    0.0000 C   0  0  0  0  0  0  0  0  0  0  0  0
   -0.5619    5.2253    0.0000 C   0  0  0  0  0  0  0  0  0  0  0  0
   -2.0890    3.1235    0.0000 C   0  0  0  0  0  0  0  0  0  0  0  0
   -0.7187    3.7336    0.0000 O   0  0  0  0  0  0  0  0  0  0  0  0
   -2.2458    1.6317    0.0000 C   0  0  0  0  0  0  0  0  0  0  0  0
   -1.0323    0.7500    0.0000 N   0  0  0  0  0  0  0  0  0  0  0  0
    0.3943    1.2135    0.0000 C   0  0  0  0  0  0  0  0  0  0  0  0
    1.2760    0.0000    0.0000 C   0  0  0  0  0  0  0  0  0  0  0  0
    0.3943   -1.2135    0.0000 C   0  0  0  0  0  0  0  0  0  0  0  0
   -1.0323   -0.7500    0.0000 C   0  0  0  0  0  0  0  0  0  0  0  0
   -2.3463   -0.0067    0.0000 C   0  0  0  0  0  0  0  0  0  0  0  0
   -2.1895    1.4851    0.0000 C   0  0  0  0  0  0  0  0  0  0  0  0
   -3.4031    2.3668    0.0000 C   0  0  0  0  0  0  0  0  0  0  0  0
   -4.6888    1.5942    0.0000 O   0  0  0  0  0  0  0  0  0  0  0  0
   -3.2463    3.8586    0.0000 N   0  0  0  0  0  0  0  0  0  0  0  0
   -4.4598    4.7402    0.0000 C   0  0  0  0  0  0  0  0  0  0  0  0
   -3.8980    6.1310    0.0000 C   0  0  0  0  0  0  0  0  0  0  0  0
   -5.6089    3.7761    0.0000 C   0  0  0  0  0  0  0  0  0  0  0  0
   -5.5568    5.7633    0.0000 C   0  0  0  0  0  0  0  0  0  0  0  0
   -0.8192    2.0952    0.0000 C   0  0  0  0  0  0  0  0  0  0  0  0
  1  2  1  0
  2  3  1  0
  2  4  1  0
  4  5  1  0
  5  6  1  0
  6  7  2  0
  6  8  2  0
  6  9  1  0
  9 10  2  0
 10 11  1  0
 11 12  2  0
 12 13  1  0
 13 14  2  0
  4 15  1  0
 15 16  2  0
 15 17  1  0
 17 18  1  0
 18 19  1  0
 19 20  1  0
 20 21  2  0
 21 22  1  0
 22 23  2  0
 23 24  1  0
 24 25  2  0
 18 26  1  0
 26 27  2  0
 26 28  1  0
 28 29  1  0
 29 30  1  0
 30 31  1  0
 31 32  2  0
 32 33  1  0
 33 34  2  0
 34 35  1  0
 35 36  2  0
 29 37  1  0
 37 38  1  0
 37 39  1  0
 39 40  1  0
 40 41  1  0
 41 42  1  0
 42 43  1  0
 43 44  1  0
 44 45  1  0
 45 46  1  0
 46 47  1  0
 47 48  2  0
 47 49  1  0
 49 50  1  0
 50 51  1  0
 50 52  1  0
 50 53  1  0
 46 54  1  0
 14  9  1  0
 25 20  1  0
 36 31  1  0
 44 40  1  0
 54 41  1  0
M  END
>  <Title>  (77) 
idAACYgen4

$$$$

     RDKit          2D

 50 54  0  0  0  0  0  0  0  0999 V2000
   -0.6149   13.1058    0.0000 C   0  0  0  0  0  0  0  0  0  0  0  0
   -1.9140   12.3558    0.0000 C   0  0  0  0  0  0  0  0  0  0  0  0
   -3.2130   11.6058    0.0000 C   0  0  0  0  0  0  0  0  0  0  0  0
   -2.6640   13.6549    0.0000 C   0  0  0  0  0  0  0  0  0  0  0  0
   -1.1640   11.0568    0.0000 C   0  0  0  0  0  0  0  0  0  0  0  0
   -1.9140    9.7578    0.0000 C   0  0  0  0  0  0  0  0  0  0  0  0
   -3.4140    9.7578    0.0000 N   0  0  0  0  0  0  0  0  0  0  0  0
   -4.1640    8.4587    0.0000 C   0  0  0  0  0  0  0  0  0  0  0  0
   -3.4140    7.1597    0.0000 O   0  0  0  0  0  0  0  0  0  0  0  0
   -5.6640    8.4587    0.0000 C   0  0  0  0  0  0  0  0  0  0  0  0
   -6.4140    9.7578    0.0000 C   0  0  0  0  0  0  0  0  0  0  0  0
   -5.6640   11.0568    0.0000 C   0  0  0  0  0  0  0  0  0  0  0  0
   -4.1640   11.0568    0.0000 C   0  0  0  0  0  0  0  0  0  0  0  0
   -3.4140   12.3558    0.0000 C   0  0  0  0  0  0  0  0  0  0  0  0
   -4.1640   13.6549    0.0000 C   0  0  0  0  0  0  0  0  0  0  0  0
   -5.6640   13.6549    0.0000 C   0  0  0  0  0  0  0  0  0  0  0  0
   -6.4140   12.3558    0.0000 C   0  0  0  0  0  0  0  0  0  0  0  0
   -6.4140    7.1597    0.0000 N   0  0  0  0  0  0  0  0  0  0  0  0
   -5.6640    5.8606    0.0000 C   0  0  0  0  0  0  0  0  0  0  0  0
   -4.1640    5.8606    0.0000 O   0  0  0  0  0  0  0  0  0  0  0  0
   -6.4140    4.5616    0.0000 C   0  0  0  0  0  0  0  0  0  0  0  0
   -7.9140    4.5616    0.0000 C   0  0  0  0  0  0  0  0  0  0  0  0
   -8.6640    5.8606    0.0000 C   0  0  0  0  0  0  0  0  0  0  0  0
   -7.9140    7.1597    0.0000 C   0  0  0  0  0  0  0  0  0  0  0  0
   -8.6640    8.4587    0.0000 C   0  0  0  0  0  0  0  0  0  0  0  0
  -10.1640    8.4587    0.0000 C   0  0  0  0  0  0  0  0  0  0  0  0
  -10.9140    7.1597    0.0000 C   0  0  0  0  0  0  0  0  0  0  0  0
  -10.1640    5.8606    0.0000 C   0  0  0  0  0  0  0  0  0  0  0  0
   -5.6640    3.2626    0.0000 N   0  0  0  0  0  0  0  0  0  0  0  0
   -4.1640    3.2626    0.0000 C   0  0  0  0  0  0  0  0  0  0  0  0
   -3.4140    4.5616    0.0000 O   0  0  0  0  0  0  0  0  0  0  0  0
   -3.4140    1.9635    0.0000 O   0  0  0  0  0  0  0  0  0  0  0  0
   -1.9140    1.9635    0.0000 C   0  0  0  0  0  0  0  0  0  0  0  0
   -1.0323    3.1771    0.0000 C   0  0  0  0  0  0  0  0  0  0  0  0
    0.3943    2.7135    0.0000 O   0  0  0  0  0  0  0  0  0  0  0  0
    0.3943    1.2135    0.0000 C   0  0  0  0  0  0  0  0  0  0  0  0
    1.2760    0.0000    0.0000 O   0  0  0  0  0  0  0  0  0  0  0  0
    0.3943   -1.2135    0.0000 C   0  0  0  0  0  0  0  0  0  0  0  0
   -1.0323   -0.7500    0.0000 C   0  0  0  0  0  0  0  0  0  0  0  0
   -1.0323    0.7500    0.0000 C   0  0  0  0  0  0  0  0  0  0  0  0
   -1.1640    8.4587    0.0000 S   0  0  0  0  0  0  0  0  0  0  0  0
   -2.4630    7.7087    0.0000 O   0  0  0  0  0  0  0  0  0  0  0  0
    0.1351    9.2087    0.0000 O   0  0  0  0  0  0  0  0  0  0  0  0
   -0.4140    7.1597    0.0000 C   0  0  0  0  0  0  0  0  0  0  0  0
   -1.1640    5.8606    0.0000 C   0  0  0  0  0  0  0  0  0  0  0  0
   -0.4140    4.5616    0.0000 C   0  0  0  0  0  0  0  0  0  0  0  0
    1.0860    4.5616    0.0000 C   0  0  0  0  0  0  0  0  0  0  0  0
    1.8360    3.2626    0.0000 N   0  0  0  0  0  0  0  0  0  0  0  0
    1.8360    5.8606    0.0000 C   0  0  0  0  0  0  0  0  0  0  0  0
    1.0860    7.1597    0.0000 C   0  0  0  0  0  0  0  0  0  0  0  0
  1  2  1  0
  2  3  1  0
  2  4  1  0
  2  5  1  0
  5  6  1  0
  6  7  1  0
  7  8  1  0
  8  9  2  0
  8 10  1  0
 10 11  1  0
 11 12  1  0
 12 13  2  0
 13 14  1  0
 14 15  2  0
 15 16  1  0
 16 17  2  0
 10 18  1  0
 18 19  1  0
 19 20  2  0
 19 21  1  0
 21 22  1  0
 22 23  1  0
 23 24  2  0
 24 25  1  0
 25 26  2  0
 26 27  1  0
 27 28  2  0
 21 29  1  0
 29 30  1  0
 30 31  2  0
 30 32  1  0
 32 33  1  0
 33 34  1  0
 34 35  1  0
 35 36  1  0
 36 37  1  0
 37 38  1  0
 38 39  1  0
 39 40  1  0
  6 41  1  0
 41 42  2  0
 41 43  2  0
 41 44  1  0
 44 45  2  0
 45 46  1  0
 46 47  2  0
 47 48  1  0
 47 49  1  0
 49 50  2  0
 17 12  1  0
 28 23  1  0
 40 33  1  0
 50 44  1  0
 40 36  1  0
M  END
>  <Title>  (78) 
idAACZgen4

$$$$

     RDKit          2D

 57 62  0  0  0  0  0  0  0  0999 V2000
    1.0860   12.3558    0.0000 C   0  0  0  0  0  0  0  0  0  0  0  0
    0.3360   11.0568    0.0000 C   0  0  0  0  0  0  0  0  0  0  0  0
    1.0860    9.7578    0.0000 C   0  0  0  0  0  0  0  0  0  0  0  0
   -1.1640   11.0568    0.0000 C   0  0  0  0  0  0  0  0  0  0  0  0
   -1.9140    9.7578    0.0000 N   0  0  0  0  0  0  0  0  0  0  0  0
   -3.4140    9.7578    0.0000 C   0  0  0  0  0  0  0  0  0  0  0  0
   -4.1640    8.4587    0.0000 C   0  0  0  0  0  0  0  0  0  0  0  0
   -3.4140    7.1597    0.0000 O   0  0  0  0  0  0  0  0  0  0  0  0
   -5.6640    8.4587    0.0000 C   0  0  0  0  0  0  0  0  0  0  0  0
   -6.4140    9.7578    0.0000 C   0  0  0  0  0  0  0  0  0  0  0  0
   -5.6640   11.0568    0.0000 C   0  0  0  0  0  0  0  0  0  0  0  0
   -4.1640   11.0568    0.0000 C   0  0  0  0  0  0  0  0  0  0  0  0
   -3.4140   12.3558    0.0000 C   0  0  0  0  0  0  0  0  0  0  0  0
   -4.1640   13.6549    0.0000 C   0  0  0  0  0  0  0  0  0  0  0  0
   -5.6640   13.6549    0.0000 C   0  0  0  0  0  0  0  0  0  0  0  0
   -6.4140   12.3558    0.0000 C   0  0  0  0  0  0  0  0  0  0  0  0
   -6.4140    7.1597    0.0000 N   0  0  0  0  0  0  0  0  0  0  0  0
   -5.6640    5.8606    0.0000 C   0  0  0  0  0  0  0  0  0  0  0  0
   -4.1640    5.8606    0.0000 O   0  0  0  0  0  0  0  0  0  0  0  0
   -6.4140    4.5616    0.0000 C   0  0  0  0  0  0  0  0  0  0  0  0
   -7.9140    4.5616    0.0000 C   0  0  0  0  0  0  0  0  0  0  0  0
   -8.6640    5.8606    0.0000 C   0  0  0  0  0  0  0  0  0  0  0  0
   -7.9140    7.1597    0.0000 C   0  0  0  0  0  0  0  0  0  0  0  0
   -8.6640    8.4587    0.0000 C   0  0  0  0  0  0  0  0  0  0  0  0
  -10.1640    8.4587    0.0000 C   0  0  0  0  0  0  0  0  0  0  0  0
  -10.9140    7.1597    0.0000 C   0  0  0  0  0  0  0  0  0  0  0  0
  -10.1640    5.8606    0.0000 C   0  0  0  0  0  0  0  0  0  0  0  0
   -5.6640    3.2626    0.0000 N   0  0  0  0  0  0  0  0  0  0  0  0
   -4.1640    3.2626    0.0000 C   0  0  0  0  0  0  0  0  0  0  0  0
   -3.4140    4.5616    0.0000 O   0  0  0  0  0  0  0  0  0  0  0  0
   -3.4140    1.9635    0.0000 O   0  0  0  0  0  0  0  0  0  0  0  0
   -1.9140    1.9635    0.0000 C   0  0  0  0  0  0  0  0  0  0  0  0
   -1.0323    3.1771    0.0000 C   0  0  0  0  0  0  0  0  0  0  0  0
    0.3943    2.7135    0.0000 O   0  0  0  0  0  0  0  0  0  0  0  0
    0.3943    1.2135    0.0000 C   0  0  0  0  0  0  0  0  0  0  0  0
    1.2760    0.0000    0.0000 O   0  0  0  0  0  0  0  0  0  0  0  0
    0.3943   -1.2135    0.0000 C   0  0  0  0  0  0  0  0  0  0  0  0
   -1.0323   -0.7500    0.0000 C   0  0  0  0  0  0  0  0  0  0  0  0
   -1.0323    0.7500    0.0000 C   0  0  0  0  0  0  0  0  0  0  0  0
   -1.1640    8.4587    0.0000 S   0  0  0  0  0  0  0  0  0  0  0  0
   -2.4630    7.7087    0.0000 O   0  0  0  0  0  0  0  0  0  0  0  0
    0.1351    9.2087    0.0000 O   0  0  0  0  0  0  0  0  0  0  0  0
   -0.4140    7.1597    0.0000 C   0  0  0  0  0  0  0  0  0  0  0  0
   -1.1640    5.8606    0.0000 C   0  0  0  0  0  0  0  0  0  0  0  0
   -0.4140    4.5616    0.0000 C   0  0  0  0  0  0  0  0  0  0  0  0
    1.0860    4.5616    0.0000 C   0  0  0  0  0  0  0  0  0  0  0  0
    1.8360    3.2626    0.0000 N   0  0  0  0  0  0  0  0  0  0  0  0
    3.3360    3.2626    0.0000 C   0  0  0  0  0  0  0  0  0  0  0  0
    4.0860    4.5616    0.0000 O   0  0  0  0  0  0  0  0  0  0  0  0
    4.0860    1.9635    0.0000 C   0  0  0  0  0  0  0  0  0  0  0  0
    3.3360    0.6645    0.0000 C   0  0  0  0  0  0  0  0  0  0  0  0
    4.0860   -0.6346    0.0000 C   0  0  0  0  0  0  0  0  0  0  0  0
    5.5860   -0.6346    0.0000 C   0  0  0  0  0  0  0  0  0  0  0  0
    6.3360    0.6645    0.0000 C   0  0  0  0  0  0  0  0  0  0  0  0
    5.5860    1.9635    0.0000 C   0  0  0  0  0  0  0  0  0  0  0  0
    1.8360    5.8606    0.0000 C   0  0  0  0  0  0  0  0  0  0  0  0
    1.0860    7.1597    0.0000 C   0  0  0  0  0  0  0  0  0  0  0  0
  1  2  1  0
  2  3  1  0
  2  4  1  0
  4  5  1  0
  5  6  1  0
  6  7  1  0
  7  8  1  0
  7  9  1  0
  9 10  1  0
 10 11  1  0
 11 12  2  0
 12 13  1  0
 13 14  2  0
 14 15  1  0
 15 16  2  0
  9 17  1  0
 17 18  1  0
 18 19  2  0
 18 20  1  0
 20 21  1  0
 21 22  1  0
 22 23  2  0
 23 24  1  0
 24 25  2  0
 25 26  1  0
 26 27  2  0
 20 28  1  0
 28 29  1  0
 29 30  2  0
 29 31  1  0
 31 32  1  0
 32 33  1  0
 33 34  1  0
 34 35  1  0
 35 36  1  0
 36 37  1  0
 37 38  1  0
 38 39  1  0
  5 40  1  0
 40 41  2  0
 40 42  2  0
 40 43  1  0
 43 44  2  0
 44 45  1  0
 45 46  2  0
 46 47  1  0
 47 48  1  0
 48 49  2  0
 48 50  1  0
 50 51  2  0
 51 52  1  0
 52 53  2  0
 53 54  1  0
 54 55  2  0
 46 56  1  0
 56 57  2  0
 16 11  1  0
 27 22  1  0
 39 32  1  0
 57 43  1  0
 39 35  1  0
 55 50  1  0
M  END
>  <Title>  (79) 
idAADAgen4

$$$$

     RDKit          2D

 67 71  0  0  0  0  0  0  0  0999 V2000
   -6.0000   -2.5981    0.0000 C   0  0  0  0  0  0  0  0  0  0  0  0
   -5.2500   -3.8971    0.0000 C   0  0  0  0  0  0  0  0  0  0  0  0
   -6.0000   -5.1962    0.0000 O   0  0  0  0  0  0  0  0  0  0  0  0
   -3.7500   -3.8971    0.0000 N   0  0  0  0  0  0  0  0  0  0  0  0
   -3.0000   -5.1962    0.0000 C   0  0  0  0  0  0  0  0  0  0  0  0
   -1.5000   -5.1962    0.0000 C   0  0  0  0  0  0  0  0  0  0  0  0
   -0.7500   -6.4952    0.0000 O   0  0  0  0  0  0  0  0  0  0  0  0
   -0.7500   -3.8971    0.0000 N   0  0  0  0  0  0  0  0  0  0  0  0
    0.7500   -3.8971    0.0000 C   0  0  0  0  0  0  0  0  0  0  0  0
    1.5000   -2.5981    0.0000 C   0  0  0  0  0  0  0  0  0  0  0  0
    0.7500   -1.2990    0.0000 C   0  0  0  0  0  0  0  0  0  0  0  0
    1.5000    0.0000    0.0000 C   0  0  0  0  0  0  0  0  0  0  0  0
    0.7500    1.2990    0.0000 C   0  0  0  0  0  0  0  0  0  0  0  0
   -0.7500    1.2990    0.0000 C   0  0  0  0  0  0  0  0  0  0  0  0
   -1.5000    0.0000    0.0000 C   0  0  0  0  0  0  0  0  0  0  0  0
   -0.7500   -1.2990    0.0000 C   0  0  0  0  0  0  0  0  0  0  0  0
    1.5000   -5.1962    0.0000 C   0  0  0  0  0  0  0  0  0  0  0  0
    3.0000   -5.1962    0.0000 O   0  0  0  0  0  0  0  0  0  0  0  0
    0.7500   -6.4952    0.0000 C   0  0  0  0  0  0  0  0  0  0  0  0
    1.5000   -7.7942    0.0000 N   0  0  0  0  0  0  0  0  0  0  0  0
    0.7500   -9.0933    0.0000 C   0  0  0  0  0  0  0  0  0  0  0  0
    1.5000  -10.3923    0.0000 C   0  0  0  0  0  0  0  0  0  0  0  0
    0.7500  -11.6913    0.0000 C   0  0  0  0  0  0  0  0  0  0  0  0
    1.5000  -12.9904    0.0000 C   0  0  0  0  0  0  0  0  0  0  0  0
    3.0000  -12.9904    0.0000 C   0  0  0  0  0  0  0  0  0  0  0  0
    3.7500  -11.6913    0.0000 C   0  0  0  0  0  0  0  0  0  0  0  0
    3.0000  -10.3923    0.0000 C   0  0  0  0  0  0  0  0  0  0  0  0
    3.0000   -7.7942    0.0000 C   0  0  0  0  0  0  0  0  0  0  0  0
    3.7500   -6.4952    0.0000 O   0  0  0  0  0  0  0  0  0  0  0  0
    3.7500   -9.0933    0.0000 C   0  0  0  0  0  0  0  0  0  0  0  0
    5.2500   -9.0933    0.0000 C   0  0  0  0  0  0  0  0  0  0  0  0
    6.0000  -10.3923    0.0000 C   0  0  0  0  0  0  0  0  0  0  0  0
    7.5000  -10.3923    0.0000 C   0  0  0  0  0  0  0  0  0  0  0  0
    8.2500  -11.6913    0.0000 C   0  0  0  0  0  0  0  0  0  0  0  0
    9.7500  -11.6913    0.0000 C   0  0  0  0  0  0  0  0  0  0  0  0
   10.5000  -10.3923    0.0000 C   0  0  0  0  0  0  0  0  0  0  0  0
    9.7500   -9.0933    0.0000 C   0  0  0  0  0  0  0  0  0  0  0  0
    8.2500   -9.0933    0.0000 C   0  0  0  0  0  0  0  0  0  0  0  0
    6.0000   -7.7942    0.0000 C   0  0  0  0  0  0  0  0  0  0  0  0
    5.2500   -6.4952    0.0000 O   0  0  0  0  0  0  0  0  0  0  0  0
    7.5000   -7.7942    0.0000 N   0  0  0  0  0  0  0  0  0  0  0  0
    8.2500   -6.4952    0.0000 C   0  0  0  0  0  0  0  0  0  0  0  0
    9.7500   -6.4952    0.0000 C   0  0  0  0  0  0  0  0  0  0  0  0
   10.5000   -5.1962    0.0000 C   0  0  0  0  0  0  0  0  0  0  0  0
   12.0000   -5.1962    0.0000 C   0  0  0  0  0  0  0  0  0  0  0  0
   12.7500   -3.8971    0.0000 C   0  0  0  0  0  0  0  0  0  0  0  0
   12.0000   -2.5981    0.0000 C   0  0  0  0  0  0  0  0  0  0  0  0
   10.5000   -2.5981    0.0000 C   0  0  0  0  0  0  0  0  0  0  0  0
    9.7500   -3.8971    0.0000 C   0  0  0  0  0  0  0  0  0  0  0  0
    7.5000   -5.1962    0.0000 C   0  0  0  0  0  0  0  0  0  0  0  0
    6.0000   -5.1962    0.0000 O   0  0  0  0  0  0  0  0  0  0  0  0
    8.2500   -3.8971    0.0000 N   0  0  0  0  0  0  0  0  0  0  0  0
    7.5000   -2.5981    0.0000 C   0  0  0  0  0  0  0  0  0  0  0  0
    8.2500   -1.2990    0.0000 C   0  0  0  0  0  0  0  0  0  0  0  0
    7.5000   -0.0000    0.0000 C   0  0  0  0  0  0  0  0  0  0  0  0
    8.2500    1.2990    0.0000 C   0  0  0  0  0  0  0  0  0  0  0  0
    7.5000    2.5981    0.0000 C   0  0  0  0  0  0  0  0  0  0  0  0
    6.0000    2.5981    0.0000 C   0  0  0  0  0  0  0  0  0  0  0  0
    5.2500    1.2990    0.0000 C   0  0  0  0  0  0  0  0  0  0  0  0
    6.0000    0.0000    0.0000 C   0  0  0  0  0  0  0  0  0  0  0  0
    6.0000   -2.5981    0.0000 C   0  0  0  0  0  0  0  0  0  0  0  0
    5.2500   -3.8971    0.0000 O   0  0  0  0  0  0  0  0  0  0  0  0
    5.2500   -1.2990    0.0000 O   0  0  0  0  0  0  0  0  0  0  0  0
   -3.7500   -6.4952    0.0000 C   0  0  0  0  0  0  0  0  0  0  0  0
   -5.0490   -5.7452    0.0000 C   0  0  0  0  0  0  0  0  0  0  0  0
   -2.4510   -7.2452    0.0000 C   0  0  0  0  0  0  0  0  0  0  0  0
   -4.5000   -7.7942    0.0000 C   0  0  0  0  0  0  0  0  0  0  0  0
  1  2  1  0
  2  3  2  0
  2  4  1  0
  4  5  1  0
  5  6  1  0
  6  7  2  0
  6  8  1  0
  8  9  1  0
  9 10  1  0
 10 11  1  0
 11 12  2  0
 12 13  1  0
 13 14  2  0
 14 15  1  0
 15 16  2  0
  9 17  1  0
 17 18  1  0
 17 19  1  0
 19 20  1  0
 20 21  1  0
 21 22  1  0
 22 23  2  0
 23 24  1  0
 24 25  2  0
 25 26  1  0
 26 27  2  0
 20 28  1  0
 28 29  1  0
 28 30  1  0
 30 31  1  0
 31 32  1  0
 32 33  1  0
 33 34  2  0
 34 35  1  0
 35 36  2  0
 36 37  1  0
 37 38  2  0
 31 39  1  0
 39 40  2  0
 39 41  1  0
 41 42  1  0
 42 43  1  0
 43 44  1  0
 44 45  2  0
 45 46  1  0
 46 47  2  0
 47 48  1  0
 48 49  2  0
 42 50  1  0
 50 51  2  0
 50 52  1  0
 52 53  1  0
 53 54  1  0
 54 55  1  0
 55 56  2  0
 56 57  1  0
 57 58  2  0
 58 59  1  0
 59 60  2  0
 53 61  1  0
 61 62  2  0
 61 63  1  0
  5 64  1  0
 64 65  1  0
 64 66  1  0
 64 67  1  0
 16 11  1  0
 27 22  1  0
 38 33  1  0
 49 44  1  0
 60 55  1  0
M  END
>  <Title>  (80) 
idAADBgen4

$$$$

     RDKit          2D

 57 62  0  0  0  0  0  0  0  0999 V2000
   -5.6640    3.2626    0.0000 C   0  0  0  0  0  0  0  0  0  0  0  0
   -6.4140    4.5616    0.0000 C   0  0  0  0  0  0  0  0  0  0  0  0
   -7.9140    4.5616    0.0000 C   0  0  0  0  0  0  0  0  0  0  0  0
   -5.6640    5.8606    0.0000 C   0  0  0  0  0  0  0  0  0  0  0  0
   -6.4140    7.1597    0.0000 N   0  0  0  0  0  0  0  0  0  0  0  0
   -7.9140    7.1597    0.0000 C   0  0  0  0  0  0  0  0  0  0  0  0
   -8.6640    8.4587    0.0000 C   0  0  0  0  0  0  0  0  0  0  0  0
   -7.9140    9.7578    0.0000 O   0  0  0  0  0  0  0  0  0  0  0  0
  -10.1640    8.4587    0.0000 C   0  0  0  0  0  0  0  0  0  0  0  0
  -10.9140    9.7578    0.0000 C   0  0  0  0  0  0  0  0  0  0  0  0
  -10.1640   11.0568    0.0000 C   0  0  0  0  0  0  0  0  0  0  0  0
  -10.9140   12.3558    0.0000 C   0  0  0  0  0  0  0  0  0  0  0  0
  -10.1640   13.6549    0.0000 C   0  0  0  0  0  0  0  0  0  0  0  0
   -8.6640   13.6549    0.0000 C   0  0  0  0  0  0  0  0  0  0  0  0
   -7.9140   12.3558    0.0000 C   0  0  0  0  0  0  0  0  0  0  0  0
   -8.6640   11.0568    0.0000 C   0  0  0  0  0  0  0  0  0  0  0  0
  -10.9140    7.1597    0.0000 N   0  0  0  0  0  0  0  0  0  0  0  0
  -12.4140    7.1597    0.0000 C   0  0  0  0  0  0  0  0  0  0  0  0
  -13.1640    8.4587    0.0000 O   0  0  0  0  0  0  0  0  0  0  0  0
  -13.1640    5.8606    0.0000 C   0  0  0  0  0  0  0  0  0  0  0  0
  -14.6640    5.8606    0.0000 C   0  0  0  0  0  0  0  0  0  0  0  0
  -15.4140    7.1597    0.0000 C   0  0  0  0  0  0  0  0  0  0  0  0
  -16.9140    7.1597    0.0000 C   0  0  0  0  0  0  0  0  0  0  0  0
  -17.6640    8.4587    0.0000 C   0  0  0  0  0  0  0  0  0  0  0  0
  -16.9140    9.7578    0.0000 C   0  0  0  0  0  0  0  0  0  0  0  0
  -15.4140    9.7578    0.0000 C   0  0  0  0  0  0  0  0  0  0  0  0
  -14.6640    8.4587    0.0000 C   0  0  0  0  0  0  0  0  0  0  0  0
  -12.4140    4.5616    0.0000 N   0  0  0  0  0  0  0  0  0  0  0  0
  -13.1640    3.2626    0.0000 C   0  0  0  0  0  0  0  0  0  0  0  0
  -14.6640    3.2626    0.0000 O   0  0  0  0  0  0  0  0  0  0  0  0
  -12.4140    1.9635    0.0000 C   0  0  0  0  0  0  0  0  0  0  0  0
  -10.9222    1.8067    0.0000 C   0  0  0  0  0  0  0  0  0  0  0  0
  -10.6103    0.3395    0.0000 C   0  0  0  0  0  0  0  0  0  0  0  0
  -11.9094   -0.4105    0.0000 C   0  0  0  0  0  0  0  0  0  0  0  0
  -13.0241    0.5932    0.0000 C   0  0  0  0  0  0  0  0  0  0  0  0
   -5.6640    8.4587    0.0000 C   0  0  0  0  0  0  0  0  0  0  0  0
   -6.4140    9.7578    0.0000 O   0  0  0  0  0  0  0  0  0  0  0  0
   -4.1640    8.4587    0.0000 C   0  0  0  0  0  0  0  0  0  0  0  0
   -3.4140    7.1597    0.0000 C   0  0  0  0  0  0  0  0  0  0  0  0
   -1.9140    7.1597    0.0000 C   0  0  0  0  0  0  0  0  0  0  0  0
   -1.1640    8.4587    0.0000 C   0  0  0  0  0  0  0  0  0  0  0  0
    0.3360    8.4587    0.0000 C   0  0  0  0  0  0  0  0  0  0  0  0
    1.0860    7.1597    0.0000 C   0  0  0  0  0  0  0  0  0  0  0  0
    0.3360    5.8606    0.0000 C   0  0  0  0  0  0  0  0  0  0  0  0
   -1.1640    5.8606    0.0000 C   0  0  0  0  0  0  0  0  0  0  0  0
   -3.4140    9.7578    0.0000 N   0  0  0  0  0  0  0  0  0  0  0  0
   -4.1640   11.0568    0.0000 C   0  0  0  0  0  0  0  0  0  0  0  0
   -5.6640   11.0568    0.0000 O   0  0  0  0  0  0  0  0  0  0  0  0
   -3.4140   12.3558    0.0000 O   0  0  0  0  0  0  0  0  0  0  0  0
   -4.1640   13.6549    0.0000 C   0  0  0  0  0  0  0  0  0  0  0  0
   -5.6557   13.8117    0.0000 C   0  0  0  0  0  0  0  0  0  0  0  0
   -5.9676   15.2789    0.0000 O   0  0  0  0  0  0  0  0  0  0  0  0
   -4.6686   16.0289    0.0000 C   0  0  0  0  0  0  0  0  0  0  0  0
   -4.0585   17.3992    0.0000 O   0  0  0  0  0  0  0  0  0  0  0  0
   -2.5667   17.2424    0.0000 C   0  0  0  0  0  0  0  0  0  0  0  0
   -2.2548   15.7752    0.0000 C   0  0  0  0  0  0  0  0  0  0  0  0
   -3.5539   15.0252    0.0000 C   0  0  0  0  0  0  0  0  0  0  0  0
  1  2  1  0
  2  3  1  0
  2  4  1  0
  4  5  1  0
  5  6  1  0
  6  7  1  0
  7  8  1  0
  7  9  1  0
  9 10  1  0
 10 11  1  0
 11 12  2  0
 12 13  1  0
 13 14  2  0
 14 15  1  0
 15 16  2  0
  9 17  1  0
 17 18  1  0
 18 19  2  0
 18 20  1  0
 20 21  1  0
 21 22  1  0
 22 23  2  0
 23 24  1  0
 24 25  2  0
 25 26  1  0
 26 27  2  0
 20 28  1  0
 28 29  1  0
 29 30  2  0
 29 31  1  0
 31 32  1  0
 32 33  1  0
 33 34  1  0
 34 35  1  0
  5 36  1  0
 36 37  2  0
 36 38  1  0
 38 39  1  0
 39 40  1  0
 40 41  2  0
 41 42  1  0
 42 43  2  0
 43 44  1  0
 44 45  2  0
 38 46  1  0
 46 47  1  0
 47 48  2  0
 47 49  1  0
 49 50  1  0
 50 51  1  0
 51 52  1  0
 52 53  1  0
 53 54  1  0
 54 55  1  0
 55 56  1  0
 56 57  1  0
 16 11  1  0
 27 22  1  0
 35 31  1  0
 45 40  1  0
 57 50  1  0
 57 53  1  0
M  END
>  <Title>  (81) 
idAADCgen4

$$$$

     RDKit          2D

 56 60  0  0  0  0  0  0  0  0999 V2000
    2.2500    1.2990    0.0000 C   0  0  0  0  0  0  0  0  0  0  0  0
    3.7500    1.2990    0.0000 C   0  0  0  0  0  0  0  0  0  0  0  0
    4.5000    2.5981    0.0000 C   0  0  0  0  0  0  0  0  0  0  0  0
    4.5000    0.0000    0.0000 C   0  0  0  0  0  0  0  0  0  0  0  0
    6.0000   -0.0000    0.0000 C   0  0  0  0  0  0  0  0  0  0  0  0
    6.7500    1.2990    0.0000 N   0  0  0  0  0  0  0  0  0  0  0  0
    8.2500    1.2990    0.0000 S   0  0  0  0  0  0  0  0  0  0  0  0
    8.2500    2.7990    0.0000 O   0  0  0  0  0  0  0  0  0  0  0  0
    8.2500   -0.2010    0.0000 O   0  0  0  0  0  0  0  0  0  0  0  0
    9.7500    1.2990    0.0000 C   0  0  0  0  0  0  0  0  0  0  0  0
   10.5000   -0.0000    0.0000 C   0  0  0  0  0  0  0  0  0  0  0  0
   12.0000   -0.0000    0.0000 C   0  0  0  0  0  0  0  0  0  0  0  0
   12.7500    1.2990    0.0000 C   0  0  0  0  0  0  0  0  0  0  0  0
   12.0000    2.5981    0.0000 C   0  0  0  0  0  0  0  0  0  0  0  0
   10.5000    2.5981    0.0000 C   0  0  0  0  0  0  0  0  0  0  0  0
    6.7500   -1.2990    0.0000 C   0  0  0  0  0  0  0  0  0  0  0  0
    8.2500   -1.2990    0.0000 O   0  0  0  0  0  0  0  0  0  0  0  0
    6.0000   -2.5981    0.0000 C   0  0  0  0  0  0  0  0  0  0  0  0
    4.5000   -2.5981    0.0000 C   0  0  0  0  0  0  0  0  0  0  0  0
    3.7500   -3.8971    0.0000 C   0  0  0  0  0  0  0  0  0  0  0  0
    4.5000   -5.1962    0.0000 C   0  0  0  0  0  0  0  0  0  0  0  0
    3.7500   -6.4952    0.0000 C   0  0  0  0  0  0  0  0  0  0  0  0
    2.2500   -6.4952    0.0000 C   0  0  0  0  0  0  0  0  0  0  0  0
    1.5000   -5.1962    0.0000 C   0  0  0  0  0  0  0  0  0  0  0  0
    2.2500   -3.8971    0.0000 C   0  0  0  0  0  0  0  0  0  0  0  0
    6.7500   -3.8971    0.0000 N   0  0  0  0  0  0  0  0  0  0  0  0
    8.2500   -3.8971    0.0000 C   0  0  0  0  0  0  0  0  0  0  0  0
    9.0000   -2.5981    0.0000 O   0  0  0  0  0  0  0  0  0  0  0  0
    9.0000   -5.1962    0.0000 C   0  0  0  0  0  0  0  0  0  0  0  0
   10.5000   -5.1962    0.0000 C   0  0  0  0  0  0  0  0  0  0  0  0
   11.2500   -6.4952    0.0000 C   0  0  0  0  0  0  0  0  0  0  0  0
   10.5000   -7.7942    0.0000 C   0  0  0  0  0  0  0  0  0  0  0  0
   11.2500   -9.0933    0.0000 C   0  0  0  0  0  0  0  0  0  0  0  0
   12.7500   -9.0933    0.0000 C   0  0  0  0  0  0  0  0  0  0  0  0
   13.5000   -7.7942    0.0000 C   0  0  0  0  0  0  0  0  0  0  0  0
   12.7500   -6.4952    0.0000 C   0  0  0  0  0  0  0  0  0  0  0  0
    8.2500   -6.4952    0.0000 N   0  0  0  0  0  0  0  0  0  0  0  0
    6.7500   -6.4952    0.0000 C   0  0  0  0  0  0  0  0  0  0  0  0
    6.0000   -5.1962    0.0000 O   0  0  0  0  0  0  0  0  0  0  0  0
    6.0000   -7.7942    0.0000 C   0  0  0  0  0  0  0  0  0  0  0  0
    4.5000   -7.7942    0.0000 C   0  0  0  0  0  0  0  0  0  0  0  0
    3.7500   -9.0933    0.0000 C   0  0  0  0  0  0  0  0  0  0  0  0
    4.5000  -10.3923    0.0000 C   0  0  0  0  0  0  0  0  0  0  0  0
    3.7500  -11.6913    0.0000 C   0  0  0  0  0  0  0  0  0  0  0  0
    2.2500  -11.6913    0.0000 C   0  0  0  0  0  0  0  0  0  0  0  0
    1.5000  -10.3923    0.0000 C   0  0  0  0  0  0  0  0  0  0  0  0
    2.2500   -9.0933    0.0000 C   0  0  0  0  0  0  0  0  0  0  0  0
    6.7500   -9.0933    0.0000 N   0  0  0  0  0  0  0  0  0  0  0  0
    6.0000  -10.3923    0.0000 C   0  0  0  0  0  0  0  0  0  0  0  0
    5.2265  -10.5852    0.0000 O   0  0  0  0  0  0  0  0  0  0  0  0
    6.7500  -11.6913    0.0000 O   0  0  0  0  0  0  0  0  0  0  0  0
    6.0000  -12.9904    0.0000 C   0  0  0  0  0  0  0  0  0  0  0  0
    4.5082  -13.1472    0.0000 C   0  0  0  0  0  0  0  0  0  0  0  0
    4.1963  -14.6144    0.0000 C   0  0  0  0  0  0  0  0  0  0  0  0
    5.4954  -15.3644    0.0000 C   0  0  0  0  0  0  0  0  0  0  0  0
    6.6101  -14.3607    0.0000 C   0  0  0  0  0  0  0  0  0  0  0  0
  1  2  1  0
  2  3  1  0
  2  4  1  0
  4  5  1  0
  5  6  1  0
  6  7  1  0
  7  8  2  0
  7  9  2  0
  7 10  1  0
 10 11  2  0
 11 12  1  0
 12 13  2  0
 13 14  1  0
 14 15  2  0
  5 16  1  0
 16 17  1  0
 16 18  1  0
 18 19  1  0
 19 20  1  0
 20 21  2  0
 21 22  1  0
 22 23  2  0
 23 24  1  0
 24 25  2  0
 18 26  1  0
 26 27  1  0
 27 28  2  0
 27 29  1  0
 29 30  1  0
 30 31  1  0
 31 32  2  0
 32 33  1  0
 33 34  2  0
 34 35  1  0
 35 36  2  0
 29 37  1  0
 37 38  1  0
 38 39  2  0
 38 40  1  0
 40 41  1  0
 41 42  1  0
 42 43  2  0
 43 44  1  0
 44 45  2  0
 45 46  1  0
 46 47  2  0
 40 48  1  0
 48 49  1  0
 49 50  2  0
 49 51  1  0
 51 52  1  0
 52 53  1  0
 53 54  1  0
 54 55  1  0
 55 56  1  0
 15 10  1  0
 25 20  1  0
 36 31  1  0
 47 42  1  0
 56 52  1  0
M  END
>  <Title>  (82) 
idAADDgen4

$$$$

     RDKit          2D

 49 53  0  0  0  0  0  0  0  0999 V2000
    1.0860   12.3558    0.0000 C   0  0  0  0  0  0  0  0  0  0  0  0
    0.3360   11.0568    0.0000 C   0  0  0  0  0  0  0  0  0  0  0  0
    1.0860    9.7578    0.0000 C   0  0  0  0  0  0  0  0  0  0  0  0
   -1.1640   11.0568    0.0000 C   0  0  0  0  0  0  0  0  0  0  0  0
   -1.9140    9.7578    0.0000 N   0  0  0  0  0  0  0  0  0  0  0  0
   -3.4140    9.7578    0.0000 C   0  0  0  0  0  0  0  0  0  0  0  0
   -4.1640    8.4587    0.0000 C   0  0  0  0  0  0  0  0  0  0  0  0
   -3.4140    7.1597    0.0000 O   0  0  0  0  0  0  0  0  0  0  0  0
   -5.6640    8.4587    0.0000 C   0  0  0  0  0  0  0  0  0  0  0  0
   -6.4140    9.7578    0.0000 C   0  0  0  0  0  0  0  0  0  0  0  0
   -5.6640   11.0568    0.0000 C   0  0  0  0  0  0  0  0  0  0  0  0
   -4.1640   11.0568    0.0000 C   0  0  0  0  0  0  0  0  0  0  0  0
   -3.4140   12.3558    0.0000 C   0  0  0  0  0  0  0  0  0  0  0  0
   -4.1640   13.6549    0.0000 C   0  0  0  0  0  0  0  0  0  0  0  0
   -5.6640   13.6549    0.0000 C   0  0  0  0  0  0  0  0  0  0  0  0
   -6.4140   12.3558    0.0000 C   0  0  0  0  0  0  0  0  0  0  0  0
   -6.4140    7.1597    0.0000 N   0  0  0  0  0  0  0  0  0  0  0  0
   -5.6640    5.8606    0.0000 C   0  0  0  0  0  0  0  0  0  0  0  0
   -4.1640    5.8606    0.0000 O   0  0  0  0  0  0  0  0  0  0  0  0
   -6.4140    4.5616    0.0000 C   0  0  0  0  0  0  0  0  0  0  0  0
   -7.9140    4.5616    0.0000 C   0  0  0  0  0  0  0  0  0  0  0  0
   -8.6640    5.8606    0.0000 C   0  0  0  0  0  0  0  0  0  0  0  0
   -7.9140    7.1597    0.0000 C   0  0  0  0  0  0  0  0  0  0  0  0
   -8.6640    8.4587    0.0000 C   0  0  0  0  0  0  0  0  0  0  0  0
  -10.1640    8.4587    0.0000 C   0  0  0  0  0  0  0  0  0  0  0  0
  -10.9140    7.1597    0.0000 C   0  0  0  0  0  0  0  0  0  0  0  0
  -10.1640    5.8606    0.0000 C   0  0  0  0  0  0  0  0  0  0  0  0
   -5.6640    3.2626    0.0000 N   0  0  0  0  0  0  0  0  0  0  0  0
   -4.1640    3.2626    0.0000 C   0  0  0  0  0  0  0  0  0  0  0  0
   -3.4140    4.5616    0.0000 O   0  0  0  0  0  0  0  0  0  0  0  0
   -3.4140    1.9635    0.0000 O   0  0  0  0  0  0  0  0  0  0  0  0
   -1.9140    1.9635    0.0000 C   0  0  0  0  0  0  0  0  0  0  0  0
   -1.0323    3.1771    0.0000 C   0  0  0  0  0  0  0  0  0  0  0  0
    0.3943    2.7135    0.0000 O   0  0  0  0  0  0  0  0  0  0  0  0
    0.3943    1.2135    0.0000 C   0  0  0  0  0  0  0  0  0  0  0  0
    1.2760    0.0000    0.0000 O   0  0  0  0  0  0  0  0  0  0  0  0
    0.3943   -1.2135    0.0000 C   0  0  0  0  0  0  0  0  0  0  0  0
   -1.0323   -0.7500    0.0000 C   0  0  0  0  0  0  0  0  0  0  0  0
   -1.0323    0.7500    0.0000 C   0  0  0  0  0  0  0  0  0  0  0  0
   -1.1640    8.4587    0.0000 S   0  0  0  0  0  0  0  0  0  0  0  0
   -2.4630    7.7087    0.0000 O   0  0  0  0  0  0  0  0  0  0  0  0
    0.1351    9.2087    0.0000 O   0  0  0  0  0  0  0  0  0  0  0  0
   -0.4140    7.1597    0.0000 C   0  0  0  0  0  0  0  0  0  0  0  0
   -1.1640    5.8606    0.0000 C   0  0  0  0  0  0  0  0  0  0  0  0
   -0.4140    4.5616    0.0000 C   0  0  0  0  0  0  0  0  0  0  0  0
    1.0860    4.5616    0.0000 C   0  0  0  0  0  0  0  0  0  0  0  0
    1.8360    3.2626    0.0000 O   0  0  0  0  0  0  0  0  0  0  0  0
    1.8360    5.8606    0.0000 C   0  0  0  0  0  0  0  0  0  0  0  0
    1.0860    7.1597    0.0000 C   0  0  0  0  0  0  0  0  0  0  0  0
  1  2  1  0
  2  3  1  0
  2  4  1  0
  4  5  1  0
  5  6  1  0
  6  7  1  0
  7  8  1  0
  7  9  1  0
  9 10  1  0
 10 11  1  0
 11 12  2  0
 12 13  1  0
 13 14  2  0
 14 15  1  0
 15 16  2  0
  9 17  1  0
 17 18  1  0
 18 19  2  0
 18 20  1  0
 20 21  1  0
 21 22  1  0
 22 23  2  0
 23 24  1  0
 24 25  2  0
 25 26  1  0
 26 27  2  0
 20 28  1  0
 28 29  1  0
 29 30  2  0
 29 31  1  0
 31 32  1  0
 32 33  1  0
 33 34  1  0
 34 35  1  0
 35 36  1  0
 36 37  1  0
 37 38  1  0
 38 39  1  0
  5 40  1  0
 40 41  2  0
 40 42  2  0
 40 43  1  0
 43 44  2  0
 44 45  1  0
 45 46  2  0
 46 47  1  0
 46 48  1  0
 48 49  2  0
 16 11  1  0
 27 22  1  0
 39 32  1  0
 49 43  1  0
 39 35  1  0
M  END
>  <Title>  (83) 
idAADEgen4

$$$$

     RDKit          2D

 48 49  0  0  0  0  0  0  0  0999 V2000
    8.9134    1.5000    0.0000 C   0  0  0  0  0  0  0  0  0  0  0  0
    8.9134   -0.0000    0.0000 C   0  0  0  0  0  0  0  0  0  0  0  0
    9.2401   -1.3099    0.0000 C   0  0  0  0  0  0  0  0  0  0  0  0
   10.4134   -0.0000    0.0000 C   0  0  0  0  0  0  0  0  0  0  0  0
    7.4134    0.0000    0.0000 C   0  0  0  0  0  0  0  0  0  0  0  0
    7.2616    1.4923    0.0000 C   0  0  0  0  0  0  0  0  0  0  0  0
    6.8126    2.9235    0.0000 C   0  0  0  0  0  0  0  0  0  0  0  0
    6.0846    4.2350    0.0000 C   0  0  0  0  0  0  0  0  0  0  0  0
    5.1076    5.3732    0.0000 C   0  0  0  0  0  0  0  0  0  0  0  0
    3.9214    6.2913    0.0000 C   0  0  0  0  0  0  0  0  0  0  0  0
    2.5747    6.9519    0.0000 C   0  0  0  0  0  0  0  0  0  0  0  0
    1.1226    7.3279    0.0000 C   0  0  0  0  0  0  0  0  0  0  0  0
   -0.3755    7.4039    0.0000 C   0  0  0  0  0  0  0  0  0  0  0  0
   -1.8582    7.1767    0.0000 C   0  0  0  0  0  0  0  0  0  0  0  0
   -3.2648    6.6558    0.0000 C   0  0  0  0  0  0  0  0  0  0  0  0
   -3.9254    8.0025    0.0000 C   0  0  0  0  0  0  0  0  0  0  0  0
   -5.4254    7.9916    0.0000 C   0  0  0  0  0  0  0  0  0  0  0  0
   -6.3691    9.1576    0.0000 C   0  0  0  0  0  0  0  0  0  0  0  0
   -6.0459   10.6223    0.0000 C   0  0  0  0  0  0  0  0  0  0  0  0
   -4.6992   11.2829    0.0000 C   0  0  0  0  0  0  0  0  0  0  0  0
   -3.3430   10.6419    0.0000 C   0  0  0  0  0  0  0  0  0  0  0  0
   -2.9987    9.1820    0.0000 C   0  0  0  0  0  0  0  0  0  0  0  0
   -1.6520    9.8426    0.0000 C   0  0  0  0  0  0  0  0  0  0  0  0
   -2.0550    8.0160    0.0000 C   0  0  0  0  0  0  0  0  0  0  0  0
   -4.5378    5.8623    0.0000 C   0  0  0  0  0  0  0  0  0  0  0  0
   -5.6250    4.8289    0.0000 C   0  0  0  0  0  0  0  0  0  0  0  0
   -6.4819    3.5977    0.0000 C   0  0  0  0  0  0  0  0  0  0  0  0
   -7.0734    2.2193    0.0000 C   0  0  0  0  0  0  0  0  0  0  0  0
   -7.3754    0.7500    0.0000 C   0  0  0  0  0  0  0  0  0  0  0  0
   -7.3754   -0.7500    0.0000 C   0  0  0  0  0  0  0  0  0  0  0  0
   -7.0734   -2.2193    0.0000 C   0  0  0  0  0  0  0  0  0  0  0  0
   -6.4819   -3.5977    0.0000 C   0  0  0  0  0  0  0  0  0  0  0  0
   -5.6250   -4.8289    0.0000 C   0  0  0  0  0  0  0  0  0  0  0  0
   -4.5378   -5.8623    0.0000 C   0  0  0  0  0  0  0  0  0  0  0  0
   -3.2648   -6.6558    0.0000 C   0  0  0  0  0  0  0  0  0  0  0  0
   -1.8582   -7.1767    0.0000 C   0  0  0  0  0  0  0  0  0  0  0  0
   -0.3755   -7.4039    0.0000 C   0  0  0  0  0  0  0  0  0  0  0  0
    1.1226   -7.3279    0.0000 C   0  0  0  0  0  0  0  0  0  0  0  0
    2.5747   -6.9519    0.0000 C   0  0  0  0  0  0  0  0  0  0  0  0
    3.9214   -6.2913    0.0000 C   0  0  0  0  0  0  0  0  0  0  0  0
    5.1076   -5.3732    0.0000 C   0  0  0  0  0  0  0  0  0  0  0  0
    6.0846   -4.2350    0.0000 C   0  0  0  0  0  0  0  0  0  0  0  0
    6.8126   -2.9235    0.0000 C   0  0  0  0  0  0  0  0  0  0  0  0
    7.2616   -1.4923    0.0000 C   0  0  0  0  0  0  0  0  0  0  0  0
    8.7309   -1.7943    0.0000 C   0  0  0  0  0  0  0  0  0  0  0  0
    9.2041   -3.2177    0.0000 C   0  0  0  0  0  0  0  0  0  0  0  0
   10.6734   -3.5196    0.0000 N   0  0  0  0  0  0  0  0  0  0  0  0
    8.2079   -4.3391    0.0000 O   0  0  0  0  0  0  0  0  0  0  0  0
  1  2  1  0
  2  3  1  0
  2  4  1  0
  2  5  1  0
  5  6  1  0
  6  7  1  0
  7  8  1  0
  8  9  1  0
  9 10  1  0
 10 11  1  0
 11 12  1  0
 12 13  1  0
 13 14  1  0
 14 15  1  0
 15 16  1  0
 16 17  1  0
 17 18  1  0
 18 19  1  0
 19 20  1  0
 20 21  1  0
 21 22  1  0
 22 23  1  0
 22 24  1  0
 15 25  1  0
 25 26  1  0
 26 27  1  0
 27 28  1  0
 28 29  1  0
 29 30  1  0
 30 31  1  0
 31 32  1  0
 32 33  1  0
 33 34  1  0
 34 35  1  0
 35 36  1  0
 36 37  1  0
 37 38  1  0
 38 39  1  0
 39 40  1  0
 40 41  1  0
 41 42  1  0
 42 43  1  0
 43 44  1  0
 44 45  1  0
 45 46  1  0
 46 47  1  0
 46 48  2  0
 44  5  1  0
 22 16  1  0
M  END
>  <Title>  (84) 
idAADFgen4

$$$$

     RDKit          2D

 67 72  0  0  0  0  0  0  0  0999 V2000
    0.2010  -11.1423    0.0000 C   0  0  0  0  0  0  0  0  0  0  0  0
    1.5000  -10.3923    0.0000 C   0  0  0  0  0  0  0  0  0  0  0  0
    2.7990   -9.6423    0.0000 C   0  0  0  0  0  0  0  0  0  0  0  0
    2.2500  -11.6913    0.0000 C   0  0  0  0  0  0  0  0  0  0  0  0
    0.7500   -9.0933    0.0000 C   0  0  0  0  0  0  0  0  0  0  0  0
    1.5000   -7.7942    0.0000 C   0  0  0  0  0  0  0  0  0  0  0  0
    0.7500   -6.4952    0.0000 N   0  0  0  0  0  0  0  0  0  0  0  0
    1.5000   -5.1962    0.0000 C   0  0  0  0  0  0  0  0  0  0  0  0
    3.0000   -5.1962    0.0000 O   0  0  0  0  0  0  0  0  0  0  0  0
    0.7500   -3.8971    0.0000 C   0  0  0  0  0  0  0  0  0  0  0  0
    1.5000   -2.5981    0.0000 C   0  0  0  0  0  0  0  0  0  0  0  0
    0.7500   -1.2990    0.0000 C   0  0  0  0  0  0  0  0  0  0  0  0
    1.5000    0.0000    0.0000 C   0  0  0  0  0  0  0  0  0  0  0  0
    0.7500    1.2990    0.0000 C   0  0  0  0  0  0  0  0  0  0  0  0
   -0.7500    1.2990    0.0000 C   0  0  0  0  0  0  0  0  0  0  0  0
   -1.5000    0.0000    0.0000 C   0  0  0  0  0  0  0  0  0  0  0  0
   -0.7500   -1.2990    0.0000 C   0  0  0  0  0  0  0  0  0  0  0  0
   -0.7500   -3.8971    0.0000 N   0  0  0  0  0  0  0  0  0  0  0  0
   -1.5000   -5.1962    0.0000 C   0  0  0  0  0  0  0  0  0  0  0  0
   -0.7500   -6.4952    0.0000 O   0  0  0  0  0  0  0  0  0  0  0  0
   -3.0000   -5.1962    0.0000 C   0  0  0  0  0  0  0  0  0  0  0  0
   -3.7500   -3.8971    0.0000 C   0  0  0  0  0  0  0  0  0  0  0  0
   -5.2500   -3.8971    0.0000 C   0  0  0  0  0  0  0  0  0  0  0  0
   -6.0000   -5.1962    0.0000 C   0  0  0  0  0  0  0  0  0  0  0  0
   -5.2500   -6.4952    0.0000 C   0  0  0  0  0  0  0  0  0  0  0  0
   -3.7500   -6.4952    0.0000 C   0  0  0  0  0  0  0  0  0  0  0  0
    3.0000   -7.7942    0.0000 C   0  0  0  0  0  0  0  0  0  0  0  0
    3.7500   -6.4952    0.0000 O   0  0  0  0  0  0  0  0  0  0  0  0
    3.7500   -9.0933    0.0000 N   0  0  0  0  0  0  0  0  0  0  0  0
    5.2500   -9.0933    0.0000 C   0  0  0  0  0  0  0  0  0  0  0  0
    6.0000  -10.3923    0.0000 C   0  0  0  0  0  0  0  0  0  0  0  0
    5.2500  -11.6913    0.0000 C   0  0  0  0  0  0  0  0  0  0  0  0
    6.0000  -12.9904    0.0000 C   0  0  0  0  0  0  0  0  0  0  0  0
    5.2500  -14.2894    0.0000 C   0  0  0  0  0  0  0  0  0  0  0  0
    3.7500  -14.2894    0.0000 C   0  0  0  0  0  0  0  0  0  0  0  0
    3.0000  -12.9904    0.0000 C   0  0  0  0  0  0  0  0  0  0  0  0
    3.7500  -11.6913    0.0000 C   0  0  0  0  0  0  0  0  0  0  0  0
    6.0000   -7.7942    0.0000 C   0  0  0  0  0  0  0  0  0  0  0  0
    5.2500   -6.4952    0.0000 O   0  0  0  0  0  0  0  0  0  0  0  0
    7.5000   -7.7942    0.0000 C   0  0  0  0  0  0  0  0  0  0  0  0
    8.2500   -6.4952    0.0000 N   0  0  0  0  0  0  0  0  0  0  0  0
    9.7500   -6.4952    0.0000 C   0  0  0  0  0  0  0  0  0  0  0  0
   10.5000   -7.7942    0.0000 C   0  0  0  0  0  0  0  0  0  0  0  0
   12.0000   -7.7942    0.0000 C   0  0  0  0  0  0  0  0  0  0  0  0
   12.7500   -9.0933    0.0000 C   0  0  0  0  0  0  0  0  0  0  0  0
   12.0000  -10.3923    0.0000 C   0  0  0  0  0  0  0  0  0  0  0  0
   10.5000  -10.3923    0.0000 C   0  0  0  0  0  0  0  0  0  0  0  0
    9.7500   -9.0933    0.0000 C   0  0  0  0  0  0  0  0  0  0  0  0
    7.5000   -5.1962    0.0000 C   0  0  0  0  0  0  0  0  0  0  0  0
    6.0000   -5.1962    0.0000 O   0  0  0  0  0  0  0  0  0  0  0  0
    8.2500   -3.8971    0.0000 C   0  0  0  0  0  0  0  0  0  0  0  0
    9.7500   -3.8971    0.0000 C   0  0  0  0  0  0  0  0  0  0  0  0
   10.5000   -2.5981    0.0000 C   0  0  0  0  0  0  0  0  0  0  0  0
    9.7500   -1.2990    0.0000 C   0  0  0  0  0  0  0  0  0  0  0  0
   10.5000    0.0000    0.0000 C   0  0  0  0  0  0  0  0  0  0  0  0
   12.0000    0.0000    0.0000 C   0  0  0  0  0  0  0  0  0  0  0  0
   12.7500   -1.2990    0.0000 C   0  0  0  0  0  0  0  0  0  0  0  0
   12.0000   -2.5981    0.0000 C   0  0  0  0  0  0  0  0  0  0  0  0
    7.5000   -2.5981    0.0000 N   0  0  0  0  0  0  0  0  0  0  0  0
    6.0000   -2.5981    0.0000 C   0  0  0  0  0  0  0  0  0  0  0  0
    5.2500   -3.8971    0.0000 O   0  0  0  0  0  0  0  0  0  0  0  0
    5.2500   -1.2990    0.0000 C   0  0  0  0  0  0  0  0  0  0  0  0
    6.0000   -0.0000    0.0000 C   0  0  0  0  0  0  0  0  0  0  0  0
    5.2500    1.2990    0.0000 C   0  0  0  0  0  0  0  0  0  0  0  0
    3.7500    1.2990    0.0000 C   0  0  0  0  0  0  0  0  0  0  0  0
    3.0000   -0.0000    0.0000 C   0  0  0  0  0  0  0  0  0  0  0  0
    3.7500   -1.2990    0.0000 C   0  0  0  0  0  0  0  0  0  0  0  0
  1  2  1  0
  2  3  1  0
  2  4  1  0
  2  5  1  0
  5  6  1  0
  6  7  1  0
  7  8  1  0
  8  9  2  0
  8 10  1  0
 10 11  1  0
 11 12  1  0
 12 13  2  0
 13 14  1  0
 14 15  2  0
 15 16  1  0
 16 17  2  0
 10 18  1  0
 18 19  1  0
 19 20  2  0
 19 21  1  0
 21 22  2  0
 22 23  1  0
 23 24  2  0
 24 25  1  0
 25 26  2  0
  6 27  1  0
 27 28  2  0
 27 29  1  0
 29 30  1  0
 30 31  1  0
 31 32  1  0
 32 33  2  0
 33 34  1  0
 34 35  2  0
 35 36  1  0
 36 37  2  0
 30 38  1  0
 38 39  1  0
 38 40  1  0
 40 41  1  0
 41 42  1  0
 42 43  1  0
 43 44  2  0
 44 45  1  0
 45 46  2  0
 46 47  1  0
 47 48  2  0
 41 49  1  0
 49 50  2  0
 49 51  1  0
 51 52  1  0
 52 53  1  0
 53 54  2  0
 54 55  1  0
 55 56  2  0
 56 57  1  0
 57 58  2  0
 51 59  1  0
 59 60  1  0
 60 61  2  0
 60 62  1  0
 62 63  2  0
 63 64  1  0
 64 65  2  0
 65 66  1  0
 66 67  2  0
 17 12  1  0
 26 21  1  0
 37 32  1  0
 48 43  1  0
 58 53  1  0
 67 62  1  0
M  END
>  <Title>  (85) 
idAADGgen4

$$$$

     RDKit          2D

 29 30  0  0  0  0  0  0  0  0999 V2000
   12.0000   -5.1962    0.0000 C   0  0  0  0  0  0  0  0  0  0  0  0
   10.5000   -5.1962    0.0000 C   0  0  0  0  0  0  0  0  0  0  0  0
    9.7500   -3.8971    0.0000 C   0  0  0  0  0  0  0  0  0  0  0  0
   10.5000   -2.5981    0.0000 O   0  0  0  0  0  0  0  0  0  0  0  0
    8.2500   -3.8971    0.0000 N   0  0  0  0  0  0  0  0  0  0  0  0
    7.5000   -2.5981    0.0000 C   0  0  0  0  0  0  0  0  0  0  0  0
    6.0000   -2.5981    0.0000 C   0  0  0  0  0  0  0  0  0  0  0  0
    5.2500   -1.2990    0.0000 N   0  0  0  0  0  0  0  0  0  0  0  0
    3.7500   -1.2990    0.0000 C   0  0  0  0  0  0  0  0  0  0  0  0
    3.0000   -2.5981    0.0000 O   0  0  0  0  0  0  0  0  0  0  0  0
    3.0000    0.0000    0.0000 C   0  0  0  0  0  0  0  0  0  0  0  0
    1.5000    0.0000    0.0000 C   0  0  0  0  0  0  0  0  0  0  0  0
    0.7500   -1.2990    0.0000 C   0  0  0  0  0  0  0  0  0  0  0  0
   -0.7500   -1.2990    0.0000 C   0  0  0  0  0  0  0  0  0  0  0  0
   -1.5000    0.0000    0.0000 C   0  0  0  0  0  0  0  0  0  0  0  0
   -3.0000    0.0000    0.0000 C   0  0  0  0  0  0  0  0  0  0  0  0
   -3.7500    1.2990    0.0000 N   0  0  0  0  0  0  0  0  0  0  0  0
   -5.2500    1.2990    0.0000 C   0  0  0  0  0  0  0  0  0  0  0  0
   -6.0000    0.0000    0.0000 O   0  0  0  0  0  0  0  0  0  0  0  0
   -6.0000    2.5981    0.0000 C   0  0  0  0  0  0  0  0  0  0  0  0
   -5.2500    3.8971    0.0000 C   0  0  0  0  0  0  0  0  0  0  0  0
   -6.0000    5.1962    0.0000 C   0  0  0  0  0  0  0  0  0  0  0  0
   -7.5000    5.1962    0.0000 C   0  0  0  0  0  0  0  0  0  0  0  0
   -8.2500    3.8971    0.0000 C   0  0  0  0  0  0  0  0  0  0  0  0
   -9.7500    3.8971    0.0000 O   0  0  0  0  0  0  0  0  0  0  0  0
  -10.5000    5.1962    0.0000 C   0  0  0  0  0  0  0  0  0  0  0  0
   -7.5000    2.5981    0.0000 C   0  0  0  0  0  0  0  0  0  0  0  0
   -0.7500    1.2990    0.0000 C   0  0  0  0  0  0  0  0  0  0  0  0
    0.7500    1.2990    0.0000 C   0  0  0  0  0  0  0  0  0  0  0  0
  1  2  1  0
  2  3  1  0
  3  4  2  0
  3  5  1  0
  5  6  1  0
  6  7  1  0
  7  8  1  0
  8  9  1  0
  9 10  2  0
  9 11  1  0
 11 12  1  0
 12 13  2  0
 13 14  1  0
 14 15  2  0
 15 16  1  0
 16 17  1  0
 17 18  1  0
 18 19  2  0
 18 20  1  0
 20 21  2  0
 21 22  1  0
 22 23  2  0
 23 24  1  0
 24 25  1  0
 25 26  1  0
 24 27  2  0
 15 28  1  0
 28 29  2  0
 29 12  1  0
 27 20  1  0
M  END
>  <Title>  (86) 
idAADHgen4

$$$$

     RDKit          2D

 62 67  0  0  0  0  0  0  0  0999 V2000
    1.0860   12.3558    0.0000 C   0  0  0  0  0  0  0  0  0  0  0  0
    0.3360   11.0568    0.0000 C   0  0  0  0  0  0  0  0  0  0  0  0
    1.0860    9.7578    0.0000 C   0  0  0  0  0  0  0  0  0  0  0  0
   -1.1640   11.0568    0.0000 C   0  0  0  0  0  0  0  0  0  0  0  0
   -1.9140    9.7578    0.0000 C   0  0  0  0  0  0  0  0  0  0  0  0
   -3.4140    9.7578    0.0000 N   0  0  0  0  0  0  0  0  0  0  0  0
   -4.1640    8.4587    0.0000 C   0  0  0  0  0  0  0  0  0  0  0  0
   -3.4140    7.1597    0.0000 O   0  0  0  0  0  0  0  0  0  0  0  0
   -5.6640    8.4587    0.0000 C   0  0  0  0  0  0  0  0  0  0  0  0
   -6.4140    9.7578    0.0000 C   0  0  0  0  0  0  0  0  0  0  0  0
   -5.6640   11.0568    0.0000 C   0  0  0  0  0  0  0  0  0  0  0  0
   -4.1640   11.0568    0.0000 C   0  0  0  0  0  0  0  0  0  0  0  0
   -3.4140   12.3558    0.0000 C   0  0  0  0  0  0  0  0  0  0  0  0
   -4.1640   13.6549    0.0000 C   0  0  0  0  0  0  0  0  0  0  0  0
   -5.6640   13.6549    0.0000 C   0  0  0  0  0  0  0  0  0  0  0  0
   -6.4140   12.3558    0.0000 C   0  0  0  0  0  0  0  0  0  0  0  0
   -6.4140    7.1597    0.0000 N   0  0  0  0  0  0  0  0  0  0  0  0
   -5.6640    5.8606    0.0000 C   0  0  0  0  0  0  0  0  0  0  0  0
   -4.1640    5.8606    0.0000 O   0  0  0  0  0  0  0  0  0  0  0  0
   -6.4140    4.5616    0.0000 C   0  0  0  0  0  0  0  0  0  0  0  0
   -7.9140    4.5616    0.0000 C   0  0  0  0  0  0  0  0  0  0  0  0
   -8.6640    5.8606    0.0000 C   0  0  0  0  0  0  0  0  0  0  0  0
   -7.9140    7.1597    0.0000 C   0  0  0  0  0  0  0  0  0  0  0  0
   -8.6640    8.4587    0.0000 C   0  0  0  0  0  0  0  0  0  0  0  0
  -10.1640    8.4587    0.0000 C   0  0  0  0  0  0  0  0  0  0  0  0
  -10.9140    7.1597    0.0000 C   0  0  0  0  0  0  0  0  0  0  0  0
  -10.1640    5.8606    0.0000 C   0  0  0  0  0  0  0  0  0  0  0  0
   -5.6640    3.2626    0.0000 N   0  0  0  0  0  0  0  0  0  0  0  0
   -4.1640    3.2626    0.0000 C   0  0  0  0  0  0  0  0  0  0  0  0
   -3.4140    4.5616    0.0000 O   0  0  0  0  0  0  0  0  0  0  0  0
   -3.4140    1.9635    0.0000 O   0  0  0  0  0  0  0  0  0  0  0  0
   -1.9140    1.9635    0.0000 C   0  0  0  0  0  0  0  0  0  0  0  0
   -1.0323    3.1771    0.0000 C   0  0  0  0  0  0  0  0  0  0  0  0
    0.3943    2.7135    0.0000 O   0  0  0  0  0  0  0  0  0  0  0  0
    0.3943    1.2135    0.0000 C   0  0  0  0  0  0  0  0  0  0  0  0
    1.2760    0.0000    0.0000 O   0  0  0  0  0  0  0  0  0  0  0  0
    0.3943   -1.2135    0.0000 C   0  0  0  0  0  0  0  0  0  0  0  0
   -1.0323   -0.7500    0.0000 C   0  0  0  0  0  0  0  0  0  0  0  0
   -1.0323    0.7500    0.0000 C   0  0  0  0  0  0  0  0  0  0  0  0
   -1.1640    8.4587    0.0000 S   0  0  0  0  0  0  0  0  0  0  0  0
   -2.4630    7.7087    0.0000 O   0  0  0  0  0  0  0  0  0  0  0  0
    0.1351    9.2087    0.0000 O   0  0  0  0  0  0  0  0  0  0  0  0
   -0.4140    7.1597    0.0000 C   0  0  0  0  0  0  0  0  0  0  0  0
   -1.1640    5.8606    0.0000 C   0  0  0  0  0  0  0  0  0  0  0  0
   -0.4140    4.5616    0.0000 C   0  0  0  0  0  0  0  0  0  0  0  0
    1.0860    4.5616    0.0000 C   0  0  0  0  0  0  0  0  0  0  0  0
    1.8360    3.2626    0.0000 N   0  0  0  0  0  0  0  0  0  0  0  0
    3.3360    3.2626    0.0000 C   0  0  0  0  0  0  0  0  0  0  0  0
    4.0860    4.5616    0.0000 O   0  0  0  0  0  0  0  0  0  0  0  0
    4.0860    1.9635    0.0000 C   0  0  0  0  0  0  0  0  0  0  0  0
    3.3360    0.6645    0.0000 C   0  0  0  0  0  0  0  0  0  0  0  0
    4.0860   -0.6346    0.0000 C   0  0  0  0  0  0  0  0  0  0  0  0
    5.5860   -0.6346    0.0000 C   0  0  0  0  0  0  0  0  0  0  0  0
    6.3360   -1.9336    0.0000 C   0  0  0  0  0  0  0  0  0  0  0  0
    5.5860   -3.2326    0.0000 C   0  0  0  0  0  0  0  0  0  0  0  0
    4.0860   -3.2326    0.0000 C   0  0  0  0  0  0  0  0  0  0  0  0
    3.3360   -1.9336    0.0000 C   0  0  0  0  0  0  0  0  0  0  0  0
    5.5860    1.9635    0.0000 C   0  0  0  0  0  0  0  0  0  0  0  0
    6.3360    3.2626    0.0000 O   0  0  0  0  0  0  0  0  0  0  0  0
    6.3360    0.6645    0.0000 O   0  0  0  0  0  0  0  0  0  0  0  0
    1.8360    5.8606    0.0000 C   0  0  0  0  0  0  0  0  0  0  0  0
    1.0860    7.1597    0.0000 C   0  0  0  0  0  0  0  0  0  0  0  0
  1  2  1  0
  2  3  1  0
  2  4  1  0
  4  5  1  0
  5  6  1  0
  6  7  1  0
  7  8  2  0
  7  9  1  0
  9 10  1  0
 10 11  1  0
 11 12  2  0
 12 13  1  0
 13 14  2  0
 14 15  1  0
 15 16  2  0
  9 17  1  0
 17 18  1  0
 18 19  2  0
 18 20  1  0
 20 21  1  0
 21 22  1  0
 22 23  2  0
 23 24  1  0
 24 25  2  0
 25 26  1  0
 26 27  2  0
 20 28  1  0
 28 29  1  0
 29 30  2  0
 29 31  1  0
 31 32  1  0
 32 33  1  0
 33 34  1  0
 34 35  1  0
 35 36  1  0
 36 37  1  0
 37 38  1  0
 38 39  1  0
  5 40  1  0
 40 41  2  0
 40 42  2  0
 40 43  1  0
 43 44  2  0
 44 45  1  0
 45 46  2  0
 46 47  1  0
 47 48  1  0
 48 49  2  0
 48 50  1  0
 50 51  1  0
 51 52  1  0
 52 53  2  0
 53 54  1  0
 54 55  2  0
 55 56  1  0
 56 57  2  0
 50 58  1  0
 58 59  2  0
 58 60  1  0
 46 61  1  0
 61 62  2  0
 16 11  1  0
 27 22  1  0
 39 32  1  0
 62 43  1  0
 39 35  1  0
 57 52  1  0
M  END
>  <Title>  (87) 
idAADIgen4

$$$$

     RDKit          2D

 55 58  0  0  0  0  0  0  0  0999 V2000
    6.7500   -6.4952    0.0000 C   0  0  0  0  0  0  0  0  0  0  0  0
    6.0000   -5.1962    0.0000 C   0  0  0  0  0  0  0  0  0  0  0  0
    6.7500   -3.8971    0.0000 C   0  0  0  0  0  0  0  0  0  0  0  0
    4.5000   -5.1962    0.0000 C   0  0  0  0  0  0  0  0  0  0  0  0
    3.7500   -3.8971    0.0000 C   0  0  0  0  0  0  0  0  0  0  0  0
    2.2500   -3.8971    0.0000 N   0  0  0  0  0  0  0  0  0  0  0  0
    1.5000   -2.5981    0.0000 S   0  0  0  0  0  0  0  0  0  0  0  0
    0.2010   -3.3481    0.0000 O   0  0  0  0  0  0  0  0  0  0  0  0
    2.7990   -1.8481    0.0000 O   0  0  0  0  0  0  0  0  0  0  0  0
    0.7500   -1.2990    0.0000 C   0  0  0  0  0  0  0  0  0  0  0  0
    1.5000    0.0000    0.0000 C   0  0  0  0  0  0  0  0  0  0  0  0
    0.7500    1.2990    0.0000 C   0  0  0  0  0  0  0  0  0  0  0  0
   -0.7500    1.2990    0.0000 C   0  0  0  0  0  0  0  0  0  0  0  0
   -1.5000    0.0000    0.0000 C   0  0  0  0  0  0  0  0  0  0  0  0
   -0.7500   -1.2990    0.0000 C   0  0  0  0  0  0  0  0  0  0  0  0
    4.5000   -2.5981    0.0000 C   0  0  0  0  0  0  0  0  0  0  0  0
    3.7500   -1.2990    0.0000 O   0  0  0  0  0  0  0  0  0  0  0  0
    6.0000   -2.5981    0.0000 N   0  0  0  0  0  0  0  0  0  0  0  0
    6.7500   -1.2990    0.0000 C   0  0  0  0  0  0  0  0  0  0  0  0
    8.2500   -1.2990    0.0000 C   0  0  0  0  0  0  0  0  0  0  0  0
    9.0000   -0.0000    0.0000 C   0  0  0  0  0  0  0  0  0  0  0  0
   10.5000   -0.0000    0.0000 C   0  0  0  0  0  0  0  0  0  0  0  0
   11.2500    1.2990    0.0000 C   0  0  0  0  0  0  0  0  0  0  0  0
   10.5000    2.5981    0.0000 C   0  0  0  0  0  0  0  0  0  0  0  0
    9.0000    2.5981    0.0000 C   0  0  0  0  0  0  0  0  0  0  0  0
    8.2500    1.2990    0.0000 C   0  0  0  0  0  0  0  0  0  0  0  0
    6.0000   -0.0000    0.0000 C   0  0  0  0  0  0  0  0  0  0  0  0
    4.5000   -0.0000    0.0000 O   0  0  0  0  0  0  0  0  0  0  0  0
    6.7500    1.2990    0.0000 N   0  0  0  0  0  0  0  0  0  0  0  0
    6.0000    2.5981    0.0000 C   0  0  0  0  0  0  0  0  0  0  0  0
    6.7500    3.8971    0.0000 C   0  0  0  0  0  0  0  0  0  0  0  0
    6.0000    5.1962    0.0000 C   0  0  0  0  0  0  0  0  0  0  0  0
    6.7500    6.4952    0.0000 C   0  0  0  0  0  0  0  0  0  0  0  0
    6.0000    7.7942    0.0000 C   0  0  0  0  0  0  0  0  0  0  0  0
    4.5000    7.7942    0.0000 C   0  0  0  0  0  0  0  0  0  0  0  0
    3.7500    6.4952    0.0000 C   0  0  0  0  0  0  0  0  0  0  0  0
    4.5000    5.1962    0.0000 C   0  0  0  0  0  0  0  0  0  0  0  0
    4.5000    2.5981    0.0000 C   0  0  0  0  0  0  0  0  0  0  0  0
    3.7500    1.2990    0.0000 O   0  0  0  0  0  0  0  0  0  0  0  0
    3.7500    3.8971    0.0000 N   0  0  0  0  0  0  0  0  0  0  0  0
    2.2500    3.8971    0.0000 C   0  0  0  0  0  0  0  0  0  0  0  0
    1.5000    5.1962    0.0000 C   0  0  0  0  0  0  0  0  0  0  0  0
    0.0000    5.1962    0.0000 C   0  0  0  0  0  0  0  0  0  0  0  0
   -0.7500    6.4952    0.0000 C   0  0  0  0  0  0  0  0  0  0  0  0
   -2.2500    6.4952    0.0000 C   0  0  0  0  0  0  0  0  0  0  0  0
   -3.0000    5.1962    0.0000 C   0  0  0  0  0  0  0  0  0  0  0  0
   -2.2500    3.8971    0.0000 C   0  0  0  0  0  0  0  0  0  0  0  0
   -0.7500    3.8971    0.0000 C   0  0  0  0  0  0  0  0  0  0  0  0
    1.5000    2.5981    0.0000 C   0  0  0  0  0  0  0  0  0  0  0  0
    2.2500    1.2990    0.0000 O   0  0  0  0  0  0  0  0  0  0  0  0
    0.0000    2.5981    0.0000 O   0  0  0  0  0  0  0  0  0  0  0  0
   -0.7500    3.8971    0.0000 C   0  0  0  0  0  0  0  0  0  0  0  0
   -2.0490    3.1471    0.0000 C   0  0  0  0  0  0  0  0  0  0  0  0
    0.5490    4.6471    0.0000 C   0  0  0  0  0  0  0  0  0  0  0  0
   -1.5000    5.1962    0.0000 C   0  0  0  0  0  0  0  0  0  0  0  0
  1  2  1  0
  2  3  1  0
  2  4  1  0
  4  5  1  0
  5  6  1  0
  6  7  1  0
  7  8  2  0
  7  9  2  0
  7 10  1  0
 10 11  2  0
 11 12  1  0
 12 13  2  0
 13 14  1  0
 14 15  2  0
  5 16  1  0
 16 17  2  0
 16 18  1  0
 18 19  1  0
 19 20  1  0
 20 21  1  0
 21 22  2  0
 22 23  1  0
 23 24  2  0
 24 25  1  0
 25 26  2  0
 19 27  1  0
 27 28  2  0
 27 29  1  0
 29 30  1  0
 30 31  1  0
 31 32  1  0
 32 33  2  0
 33 34  1  0
 34 35  2  0
 35 36  1  0
 36 37  2  0
 30 38  1  0
 38 39  2  0
 38 40  1  0
 40 41  1  0
 41 42  1  0
 42 43  1  0
 43 44  2  0
 44 45  1  0
 45 46  2  0
 46 47  1  0
 47 48  2  0
 41 49  1  0
 49 50  2  0
 49 51  1  0
 51 52  1  0
 52 53  1  0
 52 54  1  0
 52 55  1  0
 15 10  1  0
 26 21  1  0
 37 32  1  0
 48 43  1  0
M  END
>  <Title>  (88) 
idAADJgen4

$$$$

     RDKit          2D

 49 53  0  0  0  0  0  0  0  0999 V2000
    1.0860   12.3558    0.0000 C   0  0  0  0  0  0  0  0  0  0  0  0
    0.3360   11.0568    0.0000 C   0  0  0  0  0  0  0  0  0  0  0  0
    1.0860    9.7578    0.0000 C   0  0  0  0  0  0  0  0  0  0  0  0
   -1.1640   11.0568    0.0000 C   0  0  0  0  0  0  0  0  0  0  0  0
   -1.9140    9.7578    0.0000 C   0  0  0  0  0  0  0  0  0  0  0  0
   -3.4140    9.7578    0.0000 N   0  0  0  0  0  0  0  0  0  0  0  0
   -4.1640    8.4587    0.0000 C   0  0  0  0  0  0  0  0  0  0  0  0
   -3.4140    7.1597    0.0000 O   0  0  0  0  0  0  0  0  0  0  0  0
   -5.6640    8.4587    0.0000 C   0  0  0  0  0  0  0  0  0  0  0  0
   -6.4140    9.7578    0.0000 C   0  0  0  0  0  0  0  0  0  0  0  0
   -5.6640   11.0568    0.0000 C   0  0  0  0  0  0  0  0  0  0  0  0
   -4.1640   11.0568    0.0000 C   0  0  0  0  0  0  0  0  0  0  0  0
   -3.4140   12.3558    0.0000 C   0  0  0  0  0  0  0  0  0  0  0  0
   -4.1640   13.6549    0.0000 C   0  0  0  0  0  0  0  0  0  0  0  0
   -5.6640   13.6549    0.0000 C   0  0  0  0  0  0  0  0  0  0  0  0
   -6.4140   12.3558    0.0000 C   0  0  0  0  0  0  0  0  0  0  0  0
   -6.4140    7.1597    0.0000 N   0  0  0  0  0  0  0  0  0  0  0  0
   -5.6640    5.8606    0.0000 C   0  0  0  0  0  0  0  0  0  0  0  0
   -4.1640    5.8606    0.0000 O   0  0  0  0  0  0  0  0  0  0  0  0
   -6.4140    4.5616    0.0000 C   0  0  0  0  0  0  0  0  0  0  0  0
   -7.9140    4.5616    0.0000 C   0  0  0  0  0  0  0  0  0  0  0  0
   -8.6640    5.8606    0.0000 C   0  0  0  0  0  0  0  0  0  0  0  0
   -7.9140    7.1597    0.0000 C   0  0  0  0  0  0  0  0  0  0  0  0
   -8.6640    8.4587    0.0000 C   0  0  0  0  0  0  0  0  0  0  0  0
  -10.1640    8.4587    0.0000 C   0  0  0  0  0  0  0  0  0  0  0  0
  -10.9140    7.1597    0.0000 C   0  0  0  0  0  0  0  0  0  0  0  0
  -10.1640    5.8606    0.0000 C   0  0  0  0  0  0  0  0  0  0  0  0
   -5.6640    3.2626    0.0000 N   0  0  0  0  0  0  0  0  0  0  0  0
   -4.1640    3.2626    0.0000 C   0  0  0  0  0  0  0  0  0  0  0  0
   -3.4140    4.5616    0.0000 O   0  0  0  0  0  0  0  0  0  0  0  0
   -3.4140    1.9635    0.0000 O   0  0  0  0  0  0  0  0  0  0  0  0
   -1.9140    1.9635    0.0000 C   0  0  0  0  0  0  0  0  0  0  0  0
   -1.0323    3.1771    0.0000 C   0  0  0  0  0  0  0  0  0  0  0  0
    0.3943    2.7135    0.0000 O   0  0  0  0  0  0  0  0  0  0  0  0
    0.3943    1.2135    0.0000 C   0  0  0  0  0  0  0  0  0  0  0  0
    1.2760    0.0000    0.0000 O   0  0  0  0  0  0  0  0  0  0  0  0
    0.3943   -1.2135    0.0000 C   0  0  0  0  0  0  0  0  0  0  0  0
   -1.0323   -0.7500    0.0000 C   0  0  0  0  0  0  0  0  0  0  0  0
   -1.0323    0.7500    0.0000 C   0  0  0  0  0  0  0  0  0  0  0  0
   -1.1640    8.4587    0.0000 S   0  0  0  0  0  0  0  0  0  0  0  0
   -2.4630    7.7087    0.0000 O   0  0  0  0  0  0  0  0  0  0  0  0
    0.1351    9.2087    0.0000 O   0  0  0  0  0  0  0  0  0  0  0  0
   -0.4140    7.1597    0.0000 C   0  0  0  0  0  0  0  0  0  0  0  0
   -1.1640    5.8606    0.0000 C   0  0  0  0  0  0  0  0  0  0  0  0
   -0.4140    4.5616    0.0000 C   0  0  0  0  0  0  0  0  0  0  0  0
    1.0860    4.5616    0.0000 C   0  0  0  0  0  0  0  0  0  0  0  0
    1.8360    3.2626    0.0000 N   0  0  0  0  0  0  0  0  0  0  0  0
    1.8360    5.8606    0.0000 C   0  0  0  0  0  0  0  0  0  0  0  0
    1.0860    7.1597    0.0000 C   0  0  0  0  0  0  0  0  0  0  0  0
  1  2  1  0
  2  3  1  0
  2  4  1  0
  4  5  1  0
  5  6  1  0
  6  7  1  0
  7  8  2  0
  7  9  1  0
  9 10  1  0
 10 11  1  0
 11 12  2  0
 12 13  1  0
 13 14  2  0
 14 15  1  0
 15 16  2  0
  9 17  1  0
 17 18  1  0
 18 19  2  0
 18 20  1  0
 20 21  1  0
 21 22  1  0
 22 23  2  0
 23 24  1  0
 24 25  2  0
 25 26  1  0
 26 27  2  0
 20 28  1  0
 28 29  1  0
 29 30  2  0
 29 31  1  0
 31 32  1  0
 32 33  1  0
 33 34  1  0
 34 35  1  0
 35 36  1  0
 36 37  1  0
 37 38  1  0
 38 39  1  0
  5 40  1  0
 40 41  2  0
 40 42  2  0
 40 43  1  0
 43 44  2  0
 44 45  1  0
 45 46  2  0
 46 47  1  0
 46 48  1  0
 48 49  2  0
 16 11  1  0
 27 22  1  0
 39 32  1  0
 49 43  1  0
 39 35  1  0
M  END
>  <Title>  (89) 
idAADKgen4

$$$$

     RDKit          2D

 57 62  0  0  0  0  0  0  0  0999 V2000
    1.0860   12.3558    0.0000 C   0  0  0  0  0  0  0  0  0  0  0  0
    0.3360   11.0568    0.0000 C   0  0  0  0  0  0  0  0  0  0  0  0
    1.0860    9.7578    0.0000 C   0  0  0  0  0  0  0  0  0  0  0  0
   -1.1640   11.0568    0.0000 C   0  0  0  0  0  0  0  0  0  0  0  0
   -1.9140    9.7578    0.0000 C   0  0  0  0  0  0  0  0  0  0  0  0
   -3.4140    9.7578    0.0000 N   0  0  0  0  0  0  0  0  0  0  0  0
   -4.1640    8.4587    0.0000 C   0  0  0  0  0  0  0  0  0  0  0  0
   -3.4140    7.1597    0.0000 O   0  0  0  0  0  0  0  0  0  0  0  0
   -5.6640    8.4587    0.0000 C   0  0  0  0  0  0  0  0  0  0  0  0
   -6.4140    9.7578    0.0000 C   0  0  0  0  0  0  0  0  0  0  0  0
   -5.6640   11.0568    0.0000 C   0  0  0  0  0  0  0  0  0  0  0  0
   -4.1640   11.0568    0.0000 C   0  0  0  0  0  0  0  0  0  0  0  0
   -3.4140   12.3558    0.0000 C   0  0  0  0  0  0  0  0  0  0  0  0
   -4.1640   13.6549    0.0000 C   0  0  0  0  0  0  0  0  0  0  0  0
   -5.6640   13.6549    0.0000 C   0  0  0  0  0  0  0  0  0  0  0  0
   -6.4140   12.3558    0.0000 C   0  0  0  0  0  0  0  0  0  0  0  0
   -6.4140    7.1597    0.0000 N   0  0  0  0  0  0  0  0  0  0  0  0
   -5.6640    5.8606    0.0000 C   0  0  0  0  0  0  0  0  0  0  0  0
   -4.1640    5.8606    0.0000 O   0  0  0  0  0  0  0  0  0  0  0  0
   -6.4140    4.5616    0.0000 C   0  0  0  0  0  0  0  0  0  0  0  0
   -7.9140    4.5616    0.0000 C   0  0  0  0  0  0  0  0  0  0  0  0
   -8.6640    5.8606    0.0000 C   0  0  0  0  0  0  0  0  0  0  0  0
   -7.9140    7.1597    0.0000 C   0  0  0  0  0  0  0  0  0  0  0  0
   -8.6640    8.4587    0.0000 C   0  0  0  0  0  0  0  0  0  0  0  0
  -10.1640    8.4587    0.0000 C   0  0  0  0  0  0  0  0  0  0  0  0
  -10.9140    7.1597    0.0000 C   0  0  0  0  0  0  0  0  0  0  0  0
  -10.1640    5.8606    0.0000 C   0  0  0  0  0  0  0  0  0  0  0  0
   -5.6640    3.2626    0.0000 N   0  0  0  0  0  0  0  0  0  0  0  0
   -4.1640    3.2626    0.0000 C   0  0  0  0  0  0  0  0  0  0  0  0
   -3.4140    4.5616    0.0000 O   0  0  0  0  0  0  0  0  0  0  0  0
   -3.4140    1.9635    0.0000 O   0  0  0  0  0  0  0  0  0  0  0  0
   -1.9140    1.9635    0.0000 C   0  0  0  0  0  0  0  0  0  0  0  0
   -1.0323    3.1771    0.0000 C   0  0  0  0  0  0  0  0  0  0  0  0
    0.3943    2.7135    0.0000 O   0  0  0  0  0  0  0  0  0  0  0  0
    0.3943    1.2135    0.0000 C   0  0  0  0  0  0  0  0  0  0  0  0
    1.2760    0.0000    0.0000 O   0  0  0  0  0  0  0  0  0  0  0  0
    0.3943   -1.2135    0.0000 C   0  0  0  0  0  0  0  0  0  0  0  0
   -1.0323   -0.7500    0.0000 C   0  0  0  0  0  0  0  0  0  0  0  0
   -1.0323    0.7500    0.0000 C   0  0  0  0  0  0  0  0  0  0  0  0
   -1.1640    8.4587    0.0000 S   0  0  0  0  0  0  0  0  0  0  0  0
   -2.4630    7.7087    0.0000 O   0  0  0  0  0  0  0  0  0  0  0  0
    0.1351    9.2087    0.0000 O   0  0  0  0  0  0  0  0  0  0  0  0
   -0.4140    7.1597    0.0000 C   0  0  0  0  0  0  0  0  0  0  0  0
   -1.1640    5.8606    0.0000 C   0  0  0  0  0  0  0  0  0  0  0  0
   -0.4140    4.5616    0.0000 C   0  0  0  0  0  0  0  0  0  0  0  0
    1.0860    4.5616    0.0000 C   0  0  0  0  0  0  0  0  0  0  0  0
    1.8360    3.2626    0.0000 N   0  0  0  0  0  0  0  0  0  0  0  0
    3.3360    3.2626    0.0000 C   0  0  0  0  0  0  0  0  0  0  0  0
    4.0860    4.5616    0.0000 O   0  0  0  0  0  0  0  0  0  0  0  0
    4.0860    1.9635    0.0000 C   0  0  0  0  0  0  0  0  0  0  0  0
    3.3360    0.6645    0.0000 C   0  0  0  0  0  0  0  0  0  0  0  0
    4.0860   -0.6346    0.0000 C   0  0  0  0  0  0  0  0  0  0  0  0
    5.5860   -0.6346    0.0000 C   0  0  0  0  0  0  0  0  0  0  0  0
    6.3360    0.6645    0.0000 C   0  0  0  0  0  0  0  0  0  0  0  0
    5.5860    1.9635    0.0000 C   0  0  0  0  0  0  0  0  0  0  0  0
    1.8360    5.8606    0.0000 C   0  0  0  0  0  0  0  0  0  0  0  0
    1.0860    7.1597    0.0000 C   0  0  0  0  0  0  0  0  0  0  0  0
  1  2  1  0
  2  3  1  0
  2  4  1  0
  4  5  1  0
  5  6  1  0
  6  7  1  0
  7  8  2  0
  7  9  1  0
  9 10  1  0
 10 11  1  0
 11 12  2  0
 12 13  1  0
 13 14  2  0
 14 15  1  0
 15 16  2  0
  9 17  1  0
 17 18  1  0
 18 19  2  0
 18 20  1  0
 20 21  1  0
 21 22  1  0
 22 23  2  0
 23 24  1  0
 24 25  2  0
 25 26  1  0
 26 27  2  0
 20 28  1  0
 28 29  1  0
 29 30  2  0
 29 31  1  0
 31 32  1  0
 32 33  1  0
 33 34  1  0
 34 35  1  0
 35 36  1  0
 36 37  1  0
 37 38  1  0
 38 39  1  0
  5 40  1  0
 40 41  2  0
 40 42  2  0
 40 43  1  0
 43 44  2  0
 44 45  1  0
 45 46  2  0
 46 47  1  0
 47 48  1  0
 48 49  2  0
 48 50  1  0
 50 51  1  0
 51 52  1  0
 52 53  1  0
 53 54  1  0
 54 55  1  0
 46 56  1  0
 56 57  2  0
 16 11  1  0
 27 22  1  0
 39 32  1  0
 57 43  1  0
 39 35  1  0
 55 50  1  0
M  END
>  <Title>  (90) 
idAADLgen4

$$$$

     RDKit          2D

 57 62  0  0  0  0  0  0  0  0999 V2000
    1.0860   12.3558    0.0000 C   0  0  0  0  0  0  0  0  0  0  0  0
    0.3360   11.0568    0.0000 C   0  0  0  0  0  0  0  0  0  0  0  0
    1.0860    9.7578    0.0000 C   0  0  0  0  0  0  0  0  0  0  0  0
   -1.1640   11.0568    0.0000 C   0  0  0  0  0  0  0  0  0  0  0  0
   -1.9140    9.7578    0.0000 N   0  0  0  0  0  0  0  0  0  0  0  0
   -3.4140    9.7578    0.0000 C   0  0  0  0  0  0  0  0  0  0  0  0
   -4.1640    8.4587    0.0000 C   0  0  0  0  0  0  0  0  0  0  0  0
   -3.4140    7.1597    0.0000 O   0  0  0  0  0  0  0  0  0  0  0  0
   -5.6640    8.4587    0.0000 C   0  0  0  0  0  0  0  0  0  0  0  0
   -6.4140    9.7578    0.0000 C   0  0  0  0  0  0  0  0  0  0  0  0
   -5.6640   11.0568    0.0000 C   0  0  0  0  0  0  0  0  0  0  0  0
   -4.1640   11.0568    0.0000 C   0  0  0  0  0  0  0  0  0  0  0  0
   -3.4140   12.3558    0.0000 C   0  0  0  0  0  0  0  0  0  0  0  0
   -4.1640   13.6549    0.0000 C   0  0  0  0  0  0  0  0  0  0  0  0
   -5.6640   13.6549    0.0000 C   0  0  0  0  0  0  0  0  0  0  0  0
   -6.4140   12.3558    0.0000 C   0  0  0  0  0  0  0  0  0  0  0  0
   -6.4140    7.1597    0.0000 N   0  0  0  0  0  0  0  0  0  0  0  0
   -5.6640    5.8606    0.0000 C   0  0  0  0  0  0  0  0  0  0  0  0
   -4.1640    5.8606    0.0000 O   0  0  0  0  0  0  0  0  0  0  0  0
   -6.4140    4.5616    0.0000 C   0  0  0  0  0  0  0  0  0  0  0  0
   -7.9140    4.5616    0.0000 C   0  0  0  0  0  0  0  0  0  0  0  0
   -8.6640    5.8606    0.0000 C   0  0  0  0  0  0  0  0  0  0  0  0
   -7.9140    7.1597    0.0000 C   0  0  0  0  0  0  0  0  0  0  0  0
   -8.6640    8.4587    0.0000 C   0  0  0  0  0  0  0  0  0  0  0  0
  -10.1640    8.4587    0.0000 C   0  0  0  0  0  0  0  0  0  0  0  0
  -10.9140    7.1597    0.0000 C   0  0  0  0  0  0  0  0  0  0  0  0
  -10.1640    5.8606    0.0000 C   0  0  0  0  0  0  0  0  0  0  0  0
   -5.6640    3.2626    0.0000 N   0  0  0  0  0  0  0  0  0  0  0  0
   -4.1640    3.2626    0.0000 C   0  0  0  0  0  0  0  0  0  0  0  0
   -3.4140    4.5616    0.0000 O   0  0  0  0  0  0  0  0  0  0  0  0
   -3.4140    1.9635    0.0000 O   0  0  0  0  0  0  0  0  0  0  0  0
   -1.9140    1.9635    0.0000 C   0  0  0  0  0  0  0  0  0  0  0  0
   -1.0323    3.1771    0.0000 C   0  0  0  0  0  0  0  0  0  0  0  0
    0.3943    2.7135    0.0000 O   0  0  0  0  0  0  0  0  0  0  0  0
    0.3943    1.2135    0.0000 C   0  0  0  0  0  0  0  0  0  0  0  0
    1.2760    0.0000    0.0000 O   0  0  0  0  0  0  0  0  0  0  0  0
    0.3943   -1.2135    0.0000 C   0  0  0  0  0  0  0  0  0  0  0  0
   -1.0323   -0.7500    0.0000 C   0  0  0  0  0  0  0  0  0  0  0  0
   -1.0323    0.7500    0.0000 C   0  0  0  0  0  0  0  0  0  0  0  0
   -1.1640    8.4587    0.0000 S   0  0  0  0  0  0  0  0  0  0  0  0
   -2.4630    7.7087    0.0000 O   0  0  0  0  0  0  0  0  0  0  0  0
    0.1351    9.2087    0.0000 O   0  0  0  0  0  0  0  0  0  0  0  0
   -0.4140    7.1597    0.0000 C   0  0  0  0  0  0  0  0  0  0  0  0
   -1.1640    5.8606    0.0000 C   0  0  0  0  0  0  0  0  0  0  0  0
   -0.4140    4.5616    0.0000 C   0  0  0  0  0  0  0  0  0  0  0  0
    1.0860    4.5616    0.0000 C   0  0  0  0  0  0  0  0  0  0  0  0
    1.8360    3.2626    0.0000 N   0  0  0  0  0  0  0  0  0  0  0  0
    3.3360    3.2626    0.0000 C   0  0  0  0  0  0  0  0  0  0  0  0
    4.0860    4.5616    0.0000 O   0  0  0  0  0  0  0  0  0  0  0  0
    4.0860    1.9635    0.0000 C   0  0  0  0  0  0  0  0  0  0  0  0
    3.3360    0.6645    0.0000 C   0  0  0  0  0  0  0  0  0  0  0  0
    4.0860   -0.6346    0.0000 C   0  0  0  0  0  0  0  0  0  0  0  0
    5.5860   -0.6346    0.0000 C   0  0  0  0  0  0  0  0  0  0  0  0
    6.3360    0.6645    0.0000 C   0  0  0  0  0  0  0  0  0  0  0  0
    5.5860    1.9635    0.0000 C   0  0  0  0  0  0  0  0  0  0  0  0
    1.8360    5.8606    0.0000 C   0  0  0  0  0  0  0  0  0  0  0  0
    1.0860    7.1597    0.0000 C   0  0  0  0  0  0  0  0  0  0  0  0
  1  2  1  0
  2  3  1  0
  2  4  1  0
  4  5  1  0
  5  6  1  0
  6  7  1  0
  7  8  1  0
  7  9  1  0
  9 10  1  0
 10 11  1  0
 11 12  2  0
 12 13  1  0
 13 14  2  0
 14 15  1  0
 15 16  2  0
  9 17  1  0
 17 18  1  0
 18 19  2  0
 18 20  1  0
 20 21  1  0
 21 22  1  0
 22 23  2  0
 23 24  1  0
 24 25  2  0
 25 26  1  0
 26 27  2  0
 20 28  1  0
 28 29  1  0
 29 30  2  0
 29 31  1  0
 31 32  1  0
 32 33  1  0
 33 34  1  0
 34 35  1  0
 35 36  1  0
 36 37  1  0
 37 38  1  0
 38 39  1  0
  5 40  1  0
 40 41  2  0
 40 42  2  0
 40 43  1  0
 43 44  2  0
 44 45  1  0
 45 46  2  0
 46 47  1  0
 47 48  1  0
 48 49  2  0
 48 50  1  0
 50 51  1  0
 51 52  1  0
 52 53  1  0
 53 54  1  0
 54 55  1  0
 46 56  1  0
 56 57  2  0
 16 11  1  0
 27 22  1  0
 39 32  1  0
 57 43  1  0
 39 35  1  0
 55 50  1  0
M  END
>  <Title>  (91) 
idAADMgen4

$$$$

     RDKit          2D

 43 48  0  0  0  0  0  0  0  0999 V2000
   -0.7500   -6.4952    0.0000 O   0  0  0  0  0  0  0  0  0  0  0  0
    0.7500   -6.4952    0.0000 C   0  0  0  0  0  0  0  0  0  0  0  0
    1.5000   -7.7942    0.0000 N   0  0  0  0  0  0  0  0  0  0  0  0
    0.7500   -9.0933    0.0000 C   0  0  0  0  0  0  0  0  0  0  0  0
    1.5000  -10.3923    0.0000 C   0  0  0  0  0  0  0  0  0  0  0  0
    2.9095   -9.8793    0.0000 C   0  0  0  0  0  0  0  0  0  0  0  0
    4.0586  -10.8435    0.0000 C   0  0  0  0  0  0  0  0  0  0  0  0
    5.4681  -10.3304    0.0000 C   0  0  0  0  0  0  0  0  0  0  0  0
    5.7286   -8.8532    0.0000 C   0  0  0  0  0  0  0  0  0  0  0  0
    4.5796   -7.8890    0.0000 C   0  0  0  0  0  0  0  0  0  0  0  0
    3.1700   -8.4021    0.0000 C   0  0  0  0  0  0  0  0  0  0  0  0
    1.7605  -11.8695    0.0000 C   0  0  0  0  0  0  0  0  0  0  0  0
    0.3509  -11.3565    0.0000 C   0  0  0  0  0  0  0  0  0  0  0  0
    1.5000   -5.1962    0.0000 N   0  0  0  0  0  0  0  0  0  0  0  0
    0.7500   -3.8971    0.0000 C   0  0  0  0  0  0  0  0  0  0  0  0
    1.5000   -2.5981    0.0000 C   0  0  0  0  0  0  0  0  0  0  0  0
    0.7500   -1.2990    0.0000 C   0  0  0  0  0  0  0  0  0  0  0  0
    1.5000    0.0000    0.0000 C   0  0  0  0  0  0  0  0  0  0  0  0
    0.7500    1.2990    0.0000 C   0  0  0  0  0  0  0  0  0  0  0  0
   -0.7500    1.2990    0.0000 C   0  0  0  0  0  0  0  0  0  0  0  0
   -1.5000    0.0000    0.0000 C   0  0  0  0  0  0  0  0  0  0  0  0
   -0.7500   -1.2990    0.0000 C   0  0  0  0  0  0  0  0  0  0  0  0
   -1.5000   -2.5981    0.0000 C   0  0  0  0  0  0  0  0  0  0  0  0
   -0.7500   -3.8971    0.0000 N   0  0  0  0  0  0  0  0  0  0  0  0
   -1.5000   -5.1962    0.0000 C   0  0  0  0  0  0  0  0  0  0  0  0
   -3.0000   -5.1962    0.0000 C   0  0  0  0  0  0  0  0  0  0  0  0
   -3.7500   -3.8971    0.0000 O   0  0  0  0  0  0  0  0  0  0  0  0
   -3.7500   -6.4952    0.0000 C   0  0  0  0  0  0  0  0  0  0  0  0
   -5.2500   -6.4952    0.0000 C   0  0  0  0  0  0  0  0  0  0  0  0
   -6.0000   -5.1962    0.0000 C   0  0  0  0  0  0  0  0  0  0  0  0
   -7.5000   -5.1962    0.0000 C   0  0  0  0  0  0  0  0  0  0  0  0
   -8.2500   -3.8971    0.0000 C   0  0  0  0  0  0  0  0  0  0  0  0
   -7.5000   -2.5981    0.0000 C   0  0  0  0  0  0  0  0  0  0  0  0
   -6.0000   -2.5981    0.0000 C   0  0  0  0  0  0  0  0  0  0  0  0
   -5.2500   -3.8971    0.0000 C   0  0  0  0  0  0  0  0  0  0  0  0
   -3.0000   -7.7942    0.0000 N   0  0  0  0  0  0  0  0  0  0  0  0
   -3.7500   -9.0933    0.0000 C   0  0  0  0  0  0  0  0  0  0  0  0
   -5.2500   -9.0933    0.0000 O   0  0  0  0  0  0  0  0  0  0  0  0
   -3.0000  -10.3923    0.0000 C   0  0  0  0  0  0  0  0  0  0  0  0
   -1.5082  -10.5491    0.0000 C   0  0  0  0  0  0  0  0  0  0  0  0
   -1.1963  -12.0163    0.0000 C   0  0  0  0  0  0  0  0  0  0  0  0
   -2.4954  -12.7663    0.0000 C   0  0  0  0  0  0  0  0  0  0  0  0
   -3.6101  -11.7626    0.0000 C   0  0  0  0  0  0  0  0  0  0  0  0
  1  2  2  0
  2  3  1  0
  3  4  1  0
  4  5  1  0
  5  6  1  0
  6  7  2  0
  7  8  1  0
  8  9  2  0
  9 10  1  0
 10 11  2  0
  5 12  1  0
 12 13  1  0
  2 14  1  0
 14 15  1  0
 15 16  1  0
 16 17  1  0
 17 18  1  0
 18 19  1  0
 19 20  1  0
 20 21  1  0
 21 22  1  0
 22 23  1  0
 23 24  1  0
 24 25  1  0
 25 26  1  0
 26 27  1  0
 26 28  1  0
 28 29  1  0
 29 30  1  0
 30 31  2  0
 31 32  1  0
 32 33  2  0
 33 34  1  0
 34 35  2  0
 28 36  1  0
 36 37  1  0
 37 38  2  0
 37 39  1  0
 39 40  1  0
 40 41  1  0
 41 42  1  0
 42 43  1  0
 13  5  1  0
 24 15  1  0
 35 30  1  0
 43 39  1  0
 11  6  1  0
 22 17  1  0
M  END
>  <Title>  (92) 
idAADNgen4

$$$$

     RDKit          2D

 42 48  0  0  0  0  0  0  0  0999 V2000
   -2.1590    8.2196    0.0000 O   0  0  0  0  0  0  0  0  0  0  0  0
   -1.0443    7.2159    0.0000 C   0  0  0  0  0  0  0  0  0  0  0  0
    0.3823    7.6794    0.0000 N   0  0  0  0  0  0  0  0  0  0  0  0
    0.6942    9.1466    0.0000 C   0  0  0  0  0  0  0  0  0  0  0  0
    2.1207    9.6102    0.0000 C   0  0  0  0  0  0  0  0  0  0  0  0
    2.8249    8.2857    0.0000 C   0  0  0  0  0  0  0  0  0  0  0  0
    2.0301    7.0137    0.0000 C   0  0  0  0  0  0  0  0  0  0  0  0
    2.7343    5.6892    0.0000 C   0  0  0  0  0  0  0  0  0  0  0  0
    4.2334    5.6369    0.0000 C   0  0  0  0  0  0  0  0  0  0  0  0
    5.0282    6.9090    0.0000 C   0  0  0  0  0  0  0  0  0  0  0  0
    4.3240    8.2334    0.0000 C   0  0  0  0  0  0  0  0  0  0  0  0
    3.3028   10.5337    0.0000 C   0  0  0  0  0  0  0  0  0  0  0  0
    1.9120   11.0956    0.0000 C   0  0  0  0  0  0  0  0  0  0  0  0
   -1.3562    5.7487    0.0000 N   0  0  0  0  0  0  0  0  0  0  0  0
   -2.7828    5.2851    0.0000 C   0  0  0  0  0  0  0  0  0  0  0  0
   -3.9963    6.1668    0.0000 C   0  0  0  0  0  0  0  0  0  0  0  0
   -5.2098    5.2851    0.0000 C   0  0  0  0  0  0  0  0  0  0  0  0
   -4.7463    3.8586    0.0000 C   0  0  0  0  0  0  0  0  0  0  0  0
   -3.2463    3.8586    0.0000 C   0  0  0  0  0  0  0  0  0  0  0  0
   -3.4031    2.3668    0.0000 N   0  0  0  0  0  0  0  0  0  0  0  0
   -2.1895    1.4851    0.0000 C   0  0  0  0  0  0  0  0  0  0  0  0
   -0.8192    2.0952    0.0000 C   0  0  0  0  0  0  0  0  0  0  0  0
    0.3943    1.2135    0.0000 C   0  0  0  0  0  0  0  0  0  0  0  0
    1.2760    0.0000    0.0000 C   0  0  0  0  0  0  0  0  0  0  0  0
    0.3943   -1.2135    0.0000 C   0  0  0  0  0  0  0  0  0  0  0  0
   -1.0323   -0.7500    0.0000 C   0  0  0  0  0  0  0  0  0  0  0  0
   -2.3463   -0.0067    0.0000 C   0  0  0  0  0  0  0  0  0  0  0  0
   -1.0323    0.7500    0.0000 N   0  0  0  0  0  0  0  0  0  0  0  0
   -2.2458    1.6317    0.0000 C   0  0  0  0  0  0  0  0  0  0  0  0
   -2.0890    3.1235    0.0000 C   0  0  0  0  0  0  0  0  0  0  0  0
   -3.3025    4.0051    0.0000 C   0  0  0  0  0  0  0  0  0  0  0  0
   -3.1458    5.4969    0.0000 C   0  0  0  0  0  0  0  0  0  0  0  0
   -4.3593    6.3786    0.0000 C   0  0  0  0  0  0  0  0  0  0  0  0
   -5.7296    5.7685    0.0000 C   0  0  0  0  0  0  0  0  0  0  0  0
   -5.8864    4.2767    0.0000 C   0  0  0  0  0  0  0  0  0  0  0  0
   -4.6729    3.3950    0.0000 C   0  0  0  0  0  0  0  0  0  0  0  0
   -1.7791    3.5467    0.0000 C   0  0  0  0  0  0  0  0  0  0  0  0
   -1.3155    2.1201    0.0000 C   0  0  0  0  0  0  0  0  0  0  0  0
    0.1517    1.8082    0.0000 C   0  0  0  0  0  0  0  0  0  0  0  0
    1.1554    2.9230    0.0000 C   0  0  0  0  0  0  0  0  0  0  0  0
    0.6919    4.3495    0.0000 C   0  0  0  0  0  0  0  0  0  0  0  0
   -0.7754    4.6614    0.0000 C   0  0  0  0  0  0  0  0  0  0  0  0
  1  2  2  0
  2  3  1  0
  3  4  1  0
  4  5  1  0
  5  6  1  0
  6  7  2  0
  7  8  1  0
  8  9  2  0
  9 10  1  0
 10 11  2  0
  5 12  1  0
 12 13  1  0
  2 14  1  0
 14 15  1  0
 15 16  1  0
 16 17  1  0
 17 18  1  0
 18 19  1  0
 19 20  1  0
 20 21  1  0
 21 22  1  0
 22 23  1  0
 23 24  1  0
 24 25  1  0
 25 26  1  0
 26 27  1  0
 26 28  1  0
 28 29  1  0
 29 30  1  0
 30 31  1  0
 31 32  2  0
 32 33  1  0
 33 34  2  0
 34 35  1  0
 35 36  2  0
 19 37  1  0
 37 38  2  0
 38 39  1  0
 39 40  2  0
 40 41  1  0
 41 42  2  0
 13  5  1  0
 19 15  1  0
 27 21  1  0
 36 31  1  0
 42 37  1  0
 11  6  1  0
 28 23  1  0
M  END
>  <Title>  (93) 
idAADOgen4

$$$$

     RDKit          2D

 14 15  0  0  0  0  0  0  0  0999 V2000
    3.2286   -0.0000    0.0000 C   0  0  0  0  0  0  0  0  0  0  0  0
    1.7286    0.0000    0.0000 C   0  0  0  0  0  0  0  0  0  0  0  0
    1.0777    1.3515    0.0000 C   0  0  0  0  0  0  0  0  0  0  0  0
   -0.3846    1.6852    0.0000 C   0  0  0  0  0  0  0  0  0  0  0  0
   -1.5574    0.7500    0.0000 C   0  0  0  0  0  0  0  0  0  0  0  0
   -1.5574   -0.7500    0.0000 C   0  0  0  0  0  0  0  0  0  0  0  0
   -0.3846   -1.6852    0.0000 C   0  0  0  0  0  0  0  0  0  0  0  0
    1.0777   -1.3515    0.0000 C   0  0  0  0  0  0  0  0  0  0  0  0
    2.0980   -2.4510    0.0000 C   0  0  0  0  0  0  0  0  0  0  0  0
    1.6559   -3.8844    0.0000 C   0  0  0  0  0  0  0  0  0  0  0  0
    0.1935   -4.2182    0.0000 C   0  0  0  0  0  0  0  0  0  0  0  0
   -0.8268   -3.1186    0.0000 C   0  0  0  0  0  0  0  0  0  0  0  0
   -2.1616   -2.4343    0.0000 C   0  0  0  0  0  0  0  0  0  0  0  0
   -1.7325   -4.3143    0.0000 C   0  0  0  0  0  0  0  0  0  0  0  0
  1  2  1  0
  2  3  1  0
  3  4  1  0
  4  5  1  0
  5  6  1  0
  6  7  1  0
  7  8  1  0
  8  9  1  0
  9 10  1  0
 10 11  1  0
 11 12  1  0
 12 13  1  0
 12 14  1  0
  8  2  1  0
 12  7  1  0
M  END
>  <Title>  (94) 
idAADPgen4

$$$$

     RDKit          2D

 57 62  0  0  0  0  0  0  0  0999 V2000
   -9.1740    4.8322    0.0000 C   0  0  0  0  0  0  0  0  0  0  0  0
   -7.8037    4.2221    0.0000 C   0  0  0  0  0  0  0  0  0  0  0  0
   -6.5046    4.9721    0.0000 C   0  0  0  0  0  0  0  0  0  0  0  0
   -5.3899    3.9684    0.0000 C   0  0  0  0  0  0  0  0  0  0  0  0
   -3.9227    4.2803    0.0000 C   0  0  0  0  0  0  0  0  0  0  0  0
   -6.0000    2.5981    0.0000 N   0  0  0  0  0  0  0  0  0  0  0  0
   -5.2500    1.2990    0.0000 C   0  0  0  0  0  0  0  0  0  0  0  0
   -3.7500    1.2990    0.0000 C   0  0  0  0  0  0  0  0  0  0  0  0
   -3.0000    2.5981    0.0000 C   0  0  0  0  0  0  0  0  0  0  0  0
   -1.5000    2.5981    0.0000 C   0  0  0  0  0  0  0  0  0  0  0  0
   -0.7500    1.2990    0.0000 C   0  0  0  0  0  0  0  0  0  0  0  0
   -1.5000    0.0000    0.0000 C   0  0  0  0  0  0  0  0  0  0  0  0
   -3.0000    0.0000    0.0000 C   0  0  0  0  0  0  0  0  0  0  0  0
   -3.7500   -1.2990    0.0000 C   0  0  0  0  0  0  0  0  0  0  0  0
   -5.2500   -1.2990    0.0000 O   0  0  0  0  0  0  0  0  0  0  0  0
   -3.0000   -2.5981    0.0000 N   0  0  0  0  0  0  0  0  0  0  0  0
   -3.7500   -3.8971    0.0000 C   0  0  0  0  0  0  0  0  0  0  0  0
   -5.2500   -3.8971    0.0000 C   0  0  0  0  0  0  0  0  0  0  0  0
   -6.0000   -5.1962    0.0000 C   0  0  0  0  0  0  0  0  0  0  0  0
   -7.5000   -5.1962    0.0000 C   0  0  0  0  0  0  0  0  0  0  0  0
   -8.2500   -6.4952    0.0000 C   0  0  0  0  0  0  0  0  0  0  0  0
   -7.5000   -7.7942    0.0000 C   0  0  0  0  0  0  0  0  0  0  0  0
   -6.0000   -7.7942    0.0000 C   0  0  0  0  0  0  0  0  0  0  0  0
   -5.2500   -6.4952    0.0000 C   0  0  0  0  0  0  0  0  0  0  0  0
   -3.0000   -5.1962    0.0000 C   0  0  0  0  0  0  0  0  0  0  0  0
   -3.7500   -6.4952    0.0000 O   0  0  0  0  0  0  0  0  0  0  0  0
   -1.5000   -5.1962    0.0000 N   0  0  0  0  0  0  0  0  0  0  0  0
   -0.7500   -6.4952    0.0000 C   0  0  0  0  0  0  0  0  0  0  0  0
    0.7500   -6.4952    0.0000 C   0  0  0  0  0  0  0  0  0  0  0  0
    1.5000   -7.7942    0.0000 C   0  0  0  0  0  0  0  0  0  0  0  0
    3.0000   -7.7942    0.0000 C   0  0  0  0  0  0  0  0  0  0  0  0
    3.7500   -9.0933    0.0000 C   0  0  0  0  0  0  0  0  0  0  0  0
    3.0000  -10.3923    0.0000 C   0  0  0  0  0  0  0  0  0  0  0  0
    1.5000  -10.3923    0.0000 C   0  0  0  0  0  0  0  0  0  0  0  0
    0.7500   -9.0933    0.0000 C   0  0  0  0  0  0  0  0  0  0  0  0
   -1.5000   -7.7942    0.0000 C   0  0  0  0  0  0  0  0  0  0  0  0
   -3.0000   -7.7942    0.0000 O   0  0  0  0  0  0  0  0  0  0  0  0
   -0.7500   -9.0933    0.0000 N   0  0  0  0  0  0  0  0  0  0  0  0
   -1.5000  -10.3923    0.0000 C   0  0  0  0  0  0  0  0  0  0  0  0
   -0.7500  -11.6913    0.0000 C   0  0  0  0  0  0  0  0  0  0  0  0
   -1.5000  -12.9904    0.0000 C   0  0  0  0  0  0  0  0  0  0  0  0
   -0.7500  -14.2894    0.0000 C   0  0  0  0  0  0  0  0  0  0  0  0
   -1.5000  -15.5885    0.0000 C   0  0  0  0  0  0  0  0  0  0  0  0
   -3.0000  -15.5885    0.0000 C   0  0  0  0  0  0  0  0  0  0  0  0
   -3.7500  -14.2894    0.0000 C   0  0  0  0  0  0  0  0  0  0  0  0
   -3.0000  -12.9904    0.0000 C   0  0  0  0  0  0  0  0  0  0  0  0
   -3.0000  -10.3923    0.0000 C   0  0  0  0  0  0  0  0  0  0  0  0
   -3.7500   -9.0933    0.0000 O   0  0  0  0  0  0  0  0  0  0  0  0
   -3.7500  -11.6913    0.0000 O   0  0  0  0  0  0  0  0  0  0  0  0
   -7.4918    2.7549    0.0000 C   0  0  0  0  0  0  0  0  0  0  0  0
   -8.4955    1.6402    0.0000 C   0  0  0  0  0  0  0  0  0  0  0  0
   -9.9627    1.9520    0.0000 C   0  0  0  0  0  0  0  0  0  0  0  0
  -10.9664    0.8373    0.0000 C   0  0  0  0  0  0  0  0  0  0  0  0
  -12.4336    1.1492    0.0000 C   0  0  0  0  0  0  0  0  0  0  0  0
  -12.8971    2.5758    0.0000 C   0  0  0  0  0  0  0  0  0  0  0  0
  -11.8934    3.6905    0.0000 C   0  0  0  0  0  0  0  0  0  0  0  0
  -10.4262    3.3786    0.0000 C   0  0  0  0  0  0  0  0  0  0  0  0
  1  2  1  0
  2  3  1  0
  3  4  2  0
  4  5  1  0
  4  6  1  0
  6  7  1  0
  7  8  1  0
  8  9  1  0
  9 10  1  0
 10 11  1  0
 11 12  1  0
 12 13  1  0
 13 14  1  0
 14 15  2  0
 14 16  1  0
 16 17  1  0
 17 18  1  0
 18 19  1  0
 19 20  2  0
 20 21  1  0
 21 22  2  0
 22 23  1  0
 23 24  2  0
 17 25  1  0
 25 26  2  0
 25 27  1  0
 27 28  1  0
 28 29  1  0
 29 30  1  0
 30 31  2  0
 31 32  1  0
 32 33  2  0
 33 34  1  0
 34 35  2  0
 28 36  1  0
 36 37  2  0
 36 38  1  0
 38 39  1  0
 39 40  1  0
 40 41  1  0
 41 42  2  0
 42 43  1  0
 43 44  2  0
 44 45  1  0
 45 46  2  0
 39 47  1  0
 47 48  2  0
 47 49  1  0
  6 50  1  0
 50 51  1  0
 51 52  1  0
 52 53  2  0
 53 54  1  0
 54 55  2  0
 55 56  1  0
 56 57  2  0
 50  2  2  0
 57 52  1  0
 13  8  1  0
 24 19  1  0
 35 30  1  0
 46 41  1  0
M  END
>  <Title>  (95) 
idAADQgen4

$$$$

     RDKit          2D

 31 33  0  0  0  0  0  0  0  0999 V2000
    6.5490   -0.5490    0.0000 C   0  0  0  0  0  0  0  0  0  0  0  0
    5.2500   -1.2990    0.0000 C   0  0  0  0  0  0  0  0  0  0  0  0
    3.9510   -2.0490    0.0000 C   0  0  0  0  0  0  0  0  0  0  0  0
    6.0000   -2.5981    0.0000 C   0  0  0  0  0  0  0  0  0  0  0  0
    4.5000    0.0000    0.0000 N   0  0  0  0  0  0  0  0  0  0  0  0
    3.0000    0.0000    0.0000 S   0  0  0  0  0  0  0  0  0  0  0  0
    3.0000   -1.5000    0.0000 O   0  0  0  0  0  0  0  0  0  0  0  0
    3.0000    1.5000    0.0000 O   0  0  0  0  0  0  0  0  0  0  0  0
    1.5000    0.0000    0.0000 C   0  0  0  0  0  0  0  0  0  0  0  0
    0.7500   -1.2990    0.0000 C   0  0  0  0  0  0  0  0  0  0  0  0
   -0.7500   -1.2990    0.0000 C   0  0  0  0  0  0  0  0  0  0  0  0
   -1.5000    0.0000    0.0000 C   0  0  0  0  0  0  0  0  0  0  0  0
   -0.7500    1.2990    0.0000 C   0  0  0  0  0  0  0  0  0  0  0  0
    0.7500    1.2990    0.0000 C   0  0  0  0  0  0  0  0  0  0  0  0
    1.5000    2.5981    0.0000 C   0  0  0  0  0  0  0  0  0  0  0  0
    3.0000    2.5981    0.0000 N   0  0  0  0  0  0  0  0  0  0  0  0
    3.7500    3.8971    0.0000 C   0  0  0  0  0  0  0  0  0  0  0  0
    3.0000    5.1962    0.0000 O   0  0  0  0  0  0  0  0  0  0  0  0
    5.2500    3.8971    0.0000 C   0  0  0  0  0  0  0  0  0  0  0  0
    6.0000    5.1962    0.0000 C   0  0  0  0  0  0  0  0  0  0  0  0
    7.5000    5.1962    0.0000 C   0  0  0  0  0  0  0  0  0  0  0  0
    8.2500    6.4952    0.0000 C   0  0  0  0  0  0  0  0  0  0  0  0
    7.5000    7.7942    0.0000 C   0  0  0  0  0  0  0  0  0  0  0  0
    8.2500    9.0933    0.0000 C   0  0  0  0  0  0  0  0  0  0  0  0
    9.7500    9.0933    0.0000 C   0  0  0  0  0  0  0  0  0  0  0  0
   10.5000   10.3923    0.0000 C   0  0  0  0  0  0  0  0  0  0  0  0
    9.7500   11.6913    0.0000 C   0  0  0  0  0  0  0  0  0  0  0  0
    8.2500   11.6913    0.0000 C   0  0  0  0  0  0  0  0  0  0  0  0
    7.5000   10.3923    0.0000 C   0  0  0  0  0  0  0  0  0  0  0  0
    6.0000    7.7942    0.0000 C   0  0  0  0  0  0  0  0  0  0  0  0
    5.2500    6.4952    0.0000 C   0  0  0  0  0  0  0  0  0  0  0  0
  1  2  1  0
  2  3  1  0
  2  4  1  0
  2  5  1  0
  5  6  1  0
  6  7  2  0
  6  8  2  0
  6  9  1  0
  9 10  2  0
 10 11  1  0
 11 12  2  0
 12 13  1  0
 13 14  2  0
 14 15  1  0
 15 16  1  0
 16 17  1  0
 17 18  2  0
 17 19  1  0
 19 20  1  0
 20 21  2  0
 21 22  1  0
 22 23  2  0
 23 24  1  0
 24 25  2  0
 25 26  1  0
 26 27  2  0
 27 28  1  0
 28 29  2  0
 23 30  1  0
 30 31  2  0
 14  9  1  0
 31 20  1  0
 29 24  1  0
M  END
>  <Title>  (96) 
idAADRgen4

$$$$

     RDKit          2D

 55 59  0  0  0  0  0  0  0  0999 V2000
    5.4786    2.7990    0.0000 C   0  0  0  0  0  0  0  0  0  0  0  0
    5.4786    1.2990    0.0000 C   0  0  0  0  0  0  0  0  0  0  0  0
    5.4786   -0.2010    0.0000 C   0  0  0  0  0  0  0  0  0  0  0  0
    6.9786    1.2990    0.0000 C   0  0  0  0  0  0  0  0  0  0  0  0
    3.9786    1.2990    0.0000 N   0  0  0  0  0  0  0  0  0  0  0  0
    3.2286   -0.0000    0.0000 C   0  0  0  0  0  0  0  0  0  0  0  0
    3.9786   -1.2990    0.0000 O   0  0  0  0  0  0  0  0  0  0  0  0
    1.7286    0.0000    0.0000 C   0  0  0  0  0  0  0  0  0  0  0  0
    1.0777    1.3515    0.0000 C   0  0  0  0  0  0  0  0  0  0  0  0
   -0.3846    1.6852    0.0000 C   0  0  0  0  0  0  0  0  0  0  0  0
   -1.5574    0.7500    0.0000 C   0  0  0  0  0  0  0  0  0  0  0  0
   -1.5574   -0.7500    0.0000 C   0  0  0  0  0  0  0  0  0  0  0  0
   -0.3846   -1.6852    0.0000 C   0  0  0  0  0  0  0  0  0  0  0  0
    1.0777   -1.3515    0.0000 C   0  0  0  0  0  0  0  0  0  0  0  0
    2.0130   -2.5242    0.0000 C   0  0  0  0  0  0  0  0  0  0  0  0
    3.5115   -2.4569    0.0000 C   0  0  0  0  0  0  0  0  0  0  0  0
    4.0385   -3.8613    0.0000 C   0  0  0  0  0  0  0  0  0  0  0  0
    2.8658   -4.7965    0.0000 C   0  0  0  0  0  0  0  0  0  0  0  0
    1.6139   -3.9701    0.0000 C   0  0  0  0  0  0  0  0  0  0  0  0
    0.2096   -4.4972    0.0000 C   0  0  0  0  0  0  0  0  0  0  0  0
   -0.9491   -3.5445    0.0000 O   0  0  0  0  0  0  0  0  0  0  0  0
   -0.0362   -5.9769    0.0000 N   0  0  0  0  0  0  0  0  0  0  0  0
   -1.4405   -6.5040    0.0000 C   0  0  0  0  0  0  0  0  0  0  0  0
   -1.6862   -7.9837    0.0000 C   0  0  0  0  0  0  0  0  0  0  0  0
   -3.0906   -8.5108    0.0000 C   0  0  0  0  0  0  0  0  0  0  0  0
   -4.2492   -7.5581    0.0000 C   0  0  0  0  0  0  0  0  0  0  0  0
   -5.6536   -8.0852    0.0000 C   0  0  0  0  0  0  0  0  0  0  0  0
   -5.8993   -9.5649    0.0000 C   0  0  0  0  0  0  0  0  0  0  0  0
   -4.7407  -10.5176    0.0000 C   0  0  0  0  0  0  0  0  0  0  0  0
   -3.3363   -9.9905    0.0000 C   0  0  0  0  0  0  0  0  0  0  0  0
   -2.5991   -5.5513    0.0000 C   0  0  0  0  0  0  0  0  0  0  0  0
   -2.3534   -4.0716    0.0000 O   0  0  0  0  0  0  0  0  0  0  0  0
   -4.0035   -6.0784    0.0000 N   0  0  0  0  0  0  0  0  0  0  0  0
   -5.1621   -5.1257    0.0000 C   0  0  0  0  0  0  0  0  0  0  0  0
   -6.5665   -5.6528    0.0000 C   0  0  0  0  0  0  0  0  0  0  0  0
   -7.7251   -4.7001    0.0000 C   0  0  0  0  0  0  0  0  0  0  0  0
   -7.4794   -3.2204    0.0000 C   0  0  0  0  0  0  0  0  0  0  0  0
   -8.6380   -2.2677    0.0000 C   0  0  0  0  0  0  0  0  0  0  0  0
  -10.0423   -2.7948    0.0000 C   0  0  0  0  0  0  0  0  0  0  0  0
  -10.2881   -4.2745    0.0000 C   0  0  0  0  0  0  0  0  0  0  0  0
   -9.1294   -5.2272    0.0000 C   0  0  0  0  0  0  0  0  0  0  0  0
   -4.9164   -3.6460    0.0000 C   0  0  0  0  0  0  0  0  0  0  0  0
   -3.5120   -3.1189    0.0000 O   0  0  0  0  0  0  0  0  0  0  0  0
   -6.0750   -2.6933    0.0000 N   0  0  0  0  0  0  0  0  0  0  0  0
   -5.8293   -1.2136    0.0000 C   0  0  0  0  0  0  0  0  0  0  0  0
   -6.9879   -0.2609    0.0000 C   0  0  0  0  0  0  0  0  0  0  0  0
   -6.7422    1.2188    0.0000 C   0  0  0  0  0  0  0  0  0  0  0  0
   -5.3378    1.7459    0.0000 C   0  0  0  0  0  0  0  0  0  0  0  0
   -5.0921    3.2256    0.0000 C   0  0  0  0  0  0  0  0  0  0  0  0
   -6.2507    4.1783    0.0000 C   0  0  0  0  0  0  0  0  0  0  0  0
   -7.6551    3.6512    0.0000 C   0  0  0  0  0  0  0  0  0  0  0  0
   -7.9008    2.1715    0.0000 C   0  0  0  0  0  0  0  0  0  0  0  0
   -4.4249   -0.6865    0.0000 C   0  0  0  0  0  0  0  0  0  0  0  0
   -3.2663   -1.6392    0.0000 O   0  0  0  0  0  0  0  0  0  0  0  0
   -4.1792    0.7932    0.0000 O   0  0  0  0  0  0  0  0  0  0  0  0
  1  2  1  0
  2  3  1  0
  2  4  1  0
  2  5  1  0
  5  6  1  0
  6  7  2  0
  6  8  1  0
  8  9  1  0
  9 10  1  0
 10 11  1  0
 11 12  1  0
 12 13  1  0
 13 14  1  0
 14 15  1  0
 15 16  1  0
 16 17  1  0
 17 18  1  0
 18 19  1  0
 19 20  1  0
 20 21  2  0
 20 22  1  0
 22 23  1  0
 23 24  1  0
 24 25  1  0
 25 26  2  0
 26 27  1  0
 27 28  2  0
 28 29  1  0
 29 30  2  0
 23 31  1  0
 31 32  2  0
 31 33  1  0
 33 34  1  0
 34 35  1  0
 35 36  1  0
 36 37  2  0
 37 38  1  0
 38 39  2  0
 39 40  1  0
 40 41  2  0
 34 42  1  0
 42 43  2  0
 42 44  1  0
 44 45  1  0
 45 46  1  0
 46 47  1  0
 47 48  2  0
 48 49  1  0
 49 50  2  0
 50 51  1  0
 51 52  2  0
 45 53  1  0
 53 54  2  0
 53 55  1  0
 14  8  1  0
 19 15  1  0
 30 25  1  0
 41 36  1  0
 52 47  1  0
M  END
>  <Title>  (97) 
idAADSgen4

$$$$

     RDKit          2D

 48 52  0  0  0  0  0  0  0  0999 V2000
    1.0860   12.3558    0.0000 C   0  0  0  0  0  0  0  0  0  0  0  0
    0.3360   11.0568    0.0000 C   0  0  0  0  0  0  0  0  0  0  0  0
    1.0860    9.7578    0.0000 C   0  0  0  0  0  0  0  0  0  0  0  0
   -1.1640   11.0568    0.0000 C   0  0  0  0  0  0  0  0  0  0  0  0
   -1.9140    9.7578    0.0000 N   0  0  0  0  0  0  0  0  0  0  0  0
   -3.4140    9.7578    0.0000 C   0  0  0  0  0  0  0  0  0  0  0  0
   -4.1640    8.4587    0.0000 C   0  0  0  0  0  0  0  0  0  0  0  0
   -3.4140    7.1597    0.0000 O   0  0  0  0  0  0  0  0  0  0  0  0
   -5.6640    8.4587    0.0000 C   0  0  0  0  0  0  0  0  0  0  0  0
   -6.4140    9.7578    0.0000 C   0  0  0  0  0  0  0  0  0  0  0  0
   -5.6640   11.0568    0.0000 C   0  0  0  0  0  0  0  0  0  0  0  0
   -4.1640   11.0568    0.0000 C   0  0  0  0  0  0  0  0  0  0  0  0
   -3.4140   12.3558    0.0000 C   0  0  0  0  0  0  0  0  0  0  0  0
   -4.1640   13.6549    0.0000 C   0  0  0  0  0  0  0  0  0  0  0  0
   -5.6640   13.6549    0.0000 C   0  0  0  0  0  0  0  0  0  0  0  0
   -6.4140   12.3558    0.0000 C   0  0  0  0  0  0  0  0  0  0  0  0
   -6.4140    7.1597    0.0000 N   0  0  0  0  0  0  0  0  0  0  0  0
   -5.6640    5.8606    0.0000 C   0  0  0  0  0  0  0  0  0  0  0  0
   -4.1640    5.8606    0.0000 O   0  0  0  0  0  0  0  0  0  0  0  0
   -6.4140    4.5616    0.0000 C   0  0  0  0  0  0  0  0  0  0  0  0
   -7.9140    4.5616    0.0000 C   0  0  0  0  0  0  0  0  0  0  0  0
   -8.6640    5.8606    0.0000 C   0  0  0  0  0  0  0  0  0  0  0  0
   -7.9140    7.1597    0.0000 C   0  0  0  0  0  0  0  0  0  0  0  0
   -8.6640    8.4587    0.0000 C   0  0  0  0  0  0  0  0  0  0  0  0
  -10.1640    8.4587    0.0000 C   0  0  0  0  0  0  0  0  0  0  0  0
  -10.9140    7.1597    0.0000 C   0  0  0  0  0  0  0  0  0  0  0  0
  -10.1640    5.8606    0.0000 C   0  0  0  0  0  0  0  0  0  0  0  0
   -5.6640    3.2626    0.0000 N   0  0  0  0  0  0  0  0  0  0  0  0
   -4.1640    3.2626    0.0000 C   0  0  0  0  0  0  0  0  0  0  0  0
   -3.4140    4.5616    0.0000 O   0  0  0  0  0  0  0  0  0  0  0  0
   -3.4140    1.9635    0.0000 O   0  0  0  0  0  0  0  0  0  0  0  0
   -1.9140    1.9635    0.0000 C   0  0  0  0  0  0  0  0  0  0  0  0
   -1.0323    3.1771    0.0000 C   0  0  0  0  0  0  0  0  0  0  0  0
    0.3943    2.7135    0.0000 O   0  0  0  0  0  0  0  0  0  0  0  0
    0.3943    1.2135    0.0000 C   0  0  0  0  0  0  0  0  0  0  0  0
    1.2760    0.0000    0.0000 O   0  0  0  0  0  0  0  0  0  0  0  0
    0.3943   -1.2135    0.0000 C   0  0  0  0  0  0  0  0  0  0  0  0
   -1.0323   -0.7500    0.0000 C   0  0  0  0  0  0  0  0  0  0  0  0
   -1.0323    0.7500    0.0000 C   0  0  0  0  0  0  0  0  0  0  0  0
   -1.1640    8.4587    0.0000 S   0  0  0  0  0  0  0  0  0  0  0  0
   -2.4630    7.7087    0.0000 O   0  0  0  0  0  0  0  0  0  0  0  0
    0.1351    9.2087    0.0000 O   0  0  0  0  0  0  0  0  0  0  0  0
   -0.4140    7.1597    0.0000 C   0  0  0  0  0  0  0  0  0  0  0  0
   -1.1640    5.8606    0.0000 C   0  0  0  0  0  0  0  0  0  0  0  0
   -0.4140    4.5616    0.0000 C   0  0  0  0  0  0  0  0  0  0  0  0
    1.0860    4.5616    0.0000 C   0  0  0  0  0  0  0  0  0  0  0  0
    1.8360    5.8606    0.0000 C   0  0  0  0  0  0  0  0  0  0  0  0
    1.0860    7.1597    0.0000 C   0  0  0  0  0  0  0  0  0  0  0  0
  1  2  1  0
  2  3  1  0
  2  4  1  0
  4  5  1  0
  5  6  1  0
  6  7  1  0
  7  8  1  0
  7  9  1  0
  9 10  1  0
 10 11  1  0
 11 12  2  0
 12 13  1  0
 13 14  2  0
 14 15  1  0
 15 16  2  0
  9 17  1  0
 17 18  1  0
 18 19  2  0
 18 20  1  0
 20 21  1  0
 21 22  1  0
 22 23  2  0
 23 24  1  0
 24 25  2  0
 25 26  1  0
 26 27  2  0
 20 28  1  0
 28 29  1  0
 29 30  2  0
 29 31  1  0
 31 32  1  0
 32 33  1  0
 33 34  1  0
 34 35  1  0
 35 36  1  0
 36 37  1  0
 37 38  1  0
 38 39  1  0
  5 40  1  0
 40 41  2  0
 40 42  2  0
 40 43  1  0
 43 44  2  0
 44 45  1  0
 45 46  2  0
 46 47  1  0
 47 48  2  0
 16 11  1  0
 27 22  1  0
 39 32  1  0
 48 43  1  0
 39 35  1  0
M  END
>  <Title>  (98) 
idAADTgen4

$$$$

     RDKit          2D

 56 61  0  0  0  0  0  0  0  0999 V2000
    1.0860   12.3558    0.0000 C   0  0  0  0  0  0  0  0  0  0  0  0
    0.3360   11.0568    0.0000 C   0  0  0  0  0  0  0  0  0  0  0  0
    1.0860    9.7578    0.0000 C   0  0  0  0  0  0  0  0  0  0  0  0
   -1.1640   11.0568    0.0000 C   0  0  0  0  0  0  0  0  0  0  0  0
   -1.9140    9.7578    0.0000 N   0  0  0  0  0  0  0  0  0  0  0  0
   -3.4140    9.7578    0.0000 C   0  0  0  0  0  0  0  0  0  0  0  0
   -4.1640    8.4587    0.0000 C   0  0  0  0  0  0  0  0  0  0  0  0
   -3.4140    7.1597    0.0000 O   0  0  0  0  0  0  0  0  0  0  0  0
   -5.6640    8.4587    0.0000 C   0  0  0  0  0  0  0  0  0  0  0  0
   -6.4140    9.7578    0.0000 C   0  0  0  0  0  0  0  0  0  0  0  0
   -5.6640   11.0568    0.0000 C   0  0  0  0  0  0  0  0  0  0  0  0
   -4.1640   11.0568    0.0000 C   0  0  0  0  0  0  0  0  0  0  0  0
   -3.4140   12.3558    0.0000 C   0  0  0  0  0  0  0  0  0  0  0  0
   -4.1640   13.6549    0.0000 C   0  0  0  0  0  0  0  0  0  0  0  0
   -5.6640   13.6549    0.0000 C   0  0  0  0  0  0  0  0  0  0  0  0
   -6.4140   12.3558    0.0000 C   0  0  0  0  0  0  0  0  0  0  0  0
   -6.4140    7.1597    0.0000 N   0  0  0  0  0  0  0  0  0  0  0  0
   -5.6640    5.8606    0.0000 C   0  0  0  0  0  0  0  0  0  0  0  0
   -4.1640    5.8606    0.0000 O   0  0  0  0  0  0  0  0  0  0  0  0
   -6.4140    4.5616    0.0000 C   0  0  0  0  0  0  0  0  0  0  0  0
   -7.9140    4.5616    0.0000 C   0  0  0  0  0  0  0  0  0  0  0  0
   -8.6640    5.8606    0.0000 C   0  0  0  0  0  0  0  0  0  0  0  0
   -7.9140    7.1597    0.0000 C   0  0  0  0  0  0  0  0  0  0  0  0
   -8.6640    8.4587    0.0000 C   0  0  0  0  0  0  0  0  0  0  0  0
  -10.1640    8.4587    0.0000 C   0  0  0  0  0  0  0  0  0  0  0  0
  -10.9140    7.1597    0.0000 C   0  0  0  0  0  0  0  0  0  0  0  0
  -10.1640    5.8606    0.0000 C   0  0  0  0  0  0  0  0  0  0  0  0
   -5.6640    3.2626    0.0000 N   0  0  0  0  0  0  0  0  0  0  0  0
   -4.1640    3.2626    0.0000 C   0  0  0  0  0  0  0  0  0  0  0  0
   -3.4140    4.5616    0.0000 O   0  0  0  0  0  0  0  0  0  0  0  0
   -3.4140    1.9635    0.0000 O   0  0  0  0  0  0  0  0  0  0  0  0
   -1.9140    1.9635    0.0000 C   0  0  0  0  0  0  0  0  0  0  0  0
   -1.0323    3.1771    0.0000 C   0  0  0  0  0  0  0  0  0  0  0  0
    0.3943    2.7135    0.0000 O   0  0  0  0  0  0  0  0  0  0  0  0
    0.3943    1.2135    0.0000 C   0  0  0  0  0  0  0  0  0  0  0  0
    1.2760    0.0000    0.0000 O   0  0  0  0  0  0  0  0  0  0  0  0
    0.3943   -1.2135    0.0000 C   0  0  0  0  0  0  0  0  0  0  0  0
   -1.0323   -0.7500    0.0000 C   0  0  0  0  0  0  0  0  0  0  0  0
   -1.0323    0.7500    0.0000 C   0  0  0  0  0  0  0  0  0  0  0  0
   -1.1640    8.4587    0.0000 S   0  0  0  0  0  0  0  0  0  0  0  0
   -2.4630    7.7087    0.0000 O   0  0  0  0  0  0  0  0  0  0  0  0
    0.1351    9.2087    0.0000 O   0  0  0  0  0  0  0  0  0  0  0  0
   -0.4140    7.1597    0.0000 C   0  0  0  0  0  0  0  0  0  0  0  0
   -1.1640    5.8606    0.0000 C   0  0  0  0  0  0  0  0  0  0  0  0
   -0.4140    4.5616    0.0000 C   0  0  0  0  0  0  0  0  0  0  0  0
    1.0860    4.5616    0.0000 C   0  0  0  0  0  0  0  0  0  0  0  0
    1.8360    3.2626    0.0000 N   0  0  0  0  0  0  0  0  0  0  0  0
    3.3360    3.2626    0.0000 C   0  0  0  0  0  0  0  0  0  0  0  0
    3.9869    4.6140    0.0000 C   0  0  0  0  0  0  0  0  0  0  0  0
    5.4493    4.9478    0.0000 C   0  0  0  0  0  0  0  0  0  0  0  0
    6.6220    4.0126    0.0000 C   0  0  0  0  0  0  0  0  0  0  0  0
    6.6220    2.5126    0.0000 C   0  0  0  0  0  0  0  0  0  0  0  0
    5.4493    1.5773    0.0000 C   0  0  0  0  0  0  0  0  0  0  0  0
    3.9869    1.9111    0.0000 C   0  0  0  0  0  0  0  0  0  0  0  0
    1.8360    5.8606    0.0000 C   0  0  0  0  0  0  0  0  0  0  0  0
    1.0860    7.1597    0.0000 C   0  0  0  0  0  0  0  0  0  0  0  0
  1  2  1  0
  2  3  1  0
  2  4  1  0
  4  5  1  0
  5  6  1  0
  6  7  1  0
  7  8  1  0
  7  9  1  0
  9 10  1  0
 10 11  1  0
 11 12  2  0
 12 13  1  0
 13 14  2  0
 14 15  1  0
 15 16  2  0
  9 17  1  0
 17 18  1  0
 18 19  2  0
 18 20  1  0
 20 21  1  0
 21 22  1  0
 22 23  2  0
 23 24  1  0
 24 25  2  0
 25 26  1  0
 26 27  2  0
 20 28  1  0
 28 29  1  0
 29 30  2  0
 29 31  1  0
 31 32  1  0
 32 33  1  0
 33 34  1  0
 34 35  1  0
 35 36  1  0
 36 37  1  0
 37 38  1  0
 38 39  1  0
  5 40  1  0
 40 41  2  0
 40 42  2  0
 40 43  1  0
 43 44  2  0
 44 45  1  0
 45 46  2  0
 46 47  1  0
 47 48  1  0
 48 49  2  0
 49 50  1  0
 50 51  1  0
 51 52  1  0
 52 53  1  0
 53 54  1  0
 46 55  1  0
 55 56  2  0
 16 11  1  0
 27 22  1  0
 39 32  1  0
 56 43  1  0
 39 35  1  0
 54 48  1  0
M  END
>  <Title>  (99) 
idAADUgen4

$$$$

     RDKit          2D

 78 85  0  0  0  0  0  0  0  0999 V2000
    6.2822   19.8418    0.0000 C   0  0  0  0  0  0  0  0  0  0  0  0
    6.5941   18.3745    0.0000 C   0  0  0  0  0  0  0  0  0  0  0  0
    6.9060   16.9073    0.0000 C   0  0  0  0  0  0  0  0  0  0  0  0
    8.0613   18.6864    0.0000 C   0  0  0  0  0  0  0  0  0  0  0  0
    5.1269   18.0627    0.0000 N   0  0  0  0  0  0  0  0  0  0  0  0
    4.6634   16.6361    0.0000 C   0  0  0  0  0  0  0  0  0  0  0  0
    5.9070   15.7974    0.0000 O   0  0  0  0  0  0  0  0  0  0  0  0
    3.1961   16.3242    0.0000 C   0  0  0  0  0  0  0  0  0  0  0  0
    2.0814   17.3279    0.0000 C   0  0  0  0  0  0  0  0  0  0  0  0
    0.7824   16.5779    0.0000 C   0  0  0  0  0  0  0  0  0  0  0  0
    1.0943   15.1107    0.0000 C   0  0  0  0  0  0  0  0  0  0  0  0
    2.5860   14.9539    0.0000 C   0  0  0  0  0  0  0  0  0  0  0  0
    3.3360   13.6549    0.0000 C   0  0  0  0  0  0  0  0  0  0  0  0
    4.1095   13.8478    0.0000 O   0  0  0  0  0  0  0  0  0  0  0  0
    2.5860   12.3558    0.0000 N   0  0  0  0  0  0  0  0  0  0  0  0
    3.3360   11.0568    0.0000 C   0  0  0  0  0  0  0  0  0  0  0  0
    4.8360   11.0568    0.0000 C   0  0  0  0  0  0  0  0  0  0  0  0
    5.5860   12.3558    0.0000 C   0  0  0  0  0  0  0  0  0  0  0  0
    7.0860   12.3558    0.0000 C   0  0  0  0  0  0  0  0  0  0  0  0
    7.8360   13.6549    0.0000 C   0  0  0  0  0  0  0  0  0  0  0  0
    7.0860   14.9539    0.0000 C   0  0  0  0  0  0  0  0  0  0  0  0
    5.5860   14.9539    0.0000 C   0  0  0  0  0  0  0  0  0  0  0  0
    4.8360   13.6549    0.0000 C   0  0  0  0  0  0  0  0  0  0  0  0
    2.5860    9.7578    0.0000 C   0  0  0  0  0  0  0  0  0  0  0  0
    3.6281    8.6788    0.0000 O   0  0  0  0  0  0  0  0  0  0  0  0
    1.0860    9.7578    0.0000 C   0  0  0  0  0  0  0  0  0  0  0  0
    0.3360    8.4587    0.0000 N   0  0  0  0  0  0  0  0  0  0  0  0
    1.0860    7.1597    0.0000 C   0  0  0  0  0  0  0  0  0  0  0  0
    2.5860    7.1597    0.0000 C   0  0  0  0  0  0  0  0  0  0  0  0
    3.3360    5.8606    0.0000 C   0  0  0  0  0  0  0  0  0  0  0  0
    4.8360    5.8606    0.0000 C   0  0  0  0  0  0  0  0  0  0  0  0
    5.5860    7.1597    0.0000 C   0  0  0  0  0  0  0  0  0  0  0  0
    4.8360    8.4587    0.0000 C   0  0  0  0  0  0  0  0  0  0  0  0
    3.3360    8.4587    0.0000 C   0  0  0  0  0  0  0  0  0  0  0  0
   -1.1640    8.4587    0.0000 C   0  0  0  0  0  0  0  0  0  0  0  0
   -1.9140    7.1597    0.0000 O   0  0  0  0  0  0  0  0  0  0  0  0
   -1.9140    9.7578    0.0000 C   0  0  0  0  0  0  0  0  0  0  0  0
   -1.1640   11.0568    0.0000 C   0  0  0  0  0  0  0  0  0  0  0  0
    0.3360   11.0568    0.0000 C   0  0  0  0  0  0  0  0  0  0  0  0
    1.0860    9.7578    0.0000 C   0  0  0  0  0  0  0  0  0  0  0  0
    2.5860    9.7578    0.0000 C   0  0  0  0  0  0  0  0  0  0  0  0
    3.3360   11.0568    0.0000 C   0  0  0  0  0  0  0  0  0  0  0  0
    2.5860   12.3558    0.0000 C   0  0  0  0  0  0  0  0  0  0  0  0
    1.0860   12.3558    0.0000 C   0  0  0  0  0  0  0  0  0  0  0  0
   -3.4140    9.7578    0.0000 N   0  0  0  0  0  0  0  0  0  0  0  0
   -4.1640    8.4587    0.0000 C   0  0  0  0  0  0  0  0  0  0  0  0
   -3.4140    7.1597    0.0000 O   0  0  0  0  0  0  0  0  0  0  0  0
   -5.6640    8.4587    0.0000 C   0  0  0  0  0  0  0  0  0  0  0  0
   -6.4140    9.7578    0.0000 C   0  0  0  0  0  0  0  0  0  0  0  0
   -5.6640   11.0568    0.0000 C   0  0  0  0  0  0  0  0  0  0  0  0
   -4.1640   11.0568    0.0000 C   0  0  0  0  0  0  0  0  0  0  0  0
   -3.4140   12.3558    0.0000 C   0  0  0  0  0  0  0  0  0  0  0  0
   -4.1640   13.6549    0.0000 C   0  0  0  0  0  0  0  0  0  0  0  0
   -5.6640   13.6549    0.0000 C   0  0  0  0  0  0  0  0  0  0  0  0
   -6.4140   12.3558    0.0000 C   0  0  0  0  0  0  0  0  0  0  0  0
   -6.4140    7.1597    0.0000 N   0  0  0  0  0  0  0  0  0  0  0  0
   -5.6640    5.8606    0.0000 C   0  0  0  0  0  0  0  0  0  0  0  0
   -4.1640    5.8606    0.0000 O   0  0  0  0  0  0  0  0  0  0  0  0
   -6.4140    4.5616    0.0000 C   0  0  0  0  0  0  0  0  0  0  0  0
   -7.9140    4.5616    0.0000 C   0  0  0  0  0  0  0  0  0  0  0  0
   -8.6640    5.8606    0.0000 C   0  0  0  0  0  0  0  0  0  0  0  0
   -7.9140    7.1597    0.0000 C   0  0  0  0  0  0  0  0  0  0  0  0
   -8.6640    8.4587    0.0000 C   0  0  0  0  0  0  0  0  0  0  0  0
  -10.1640    8.4587    0.0000 C   0  0  0  0  0  0  0  0  0  0  0  0
  -10.9140    7.1597    0.0000 C   0  0  0  0  0  0  0  0  0  0  0  0
  -10.1640    5.8606    0.0000 C   0  0  0  0  0  0  0  0  0  0  0  0
   -5.6640    3.2626    0.0000 N   0  0  0  0  0  0  0  0  0  0  0  0
   -4.1640    3.2626    0.0000 C   0  0  0  0  0  0  0  0  0  0  0  0
   -3.4140    4.5616    0.0000 O   0  0  0  0  0  0  0  0  0  0  0  0
   -3.4140    1.9635    0.0000 O   0  0  0  0  0  0  0  0  0  0  0  0
   -1.9140    1.9635    0.0000 C   0  0  0  0  0  0  0  0  0  0  0  0
   -1.0323    3.1771    0.0000 C   0  0  0  0  0  0  0  0  0  0  0  0
    0.3943    2.7135    0.0000 O   0  0  0  0  0  0  0  0  0  0  0  0
    0.3943    1.2135    0.0000 C   0  0  0  0  0  0  0  0  0  0  0  0
    1.2760    0.0000    0.0000 O   0  0  0  0  0  0  0  0  0  0  0  0
    0.3943   -1.2135    0.0000 C   0  0  0  0  0  0  0  0  0  0  0  0
   -1.0323   -0.7500    0.0000 C   0  0  0  0  0  0  0  0  0  0  0  0
   -1.0323    0.7500    0.0000 C   0  0  0  0  0  0  0  0  0  0  0  0
  1  2  1  0
  2  3  1  0
  2  4  1  0
  2  5  1  0
  5  6  1  0
  6  7  2  0
  6  8  1  0
  8  9  1  0
  9 10  1  0
 10 11  1  0
 11 12  1  0
 12 13  1  0
 13 14  2  0
 13 15  1  0
 15 16  1  0
 16 17  1  0
 17 18  1  0
 18 19  2  0
 19 20  1  0
 20 21  2  0
 21 22  1  0
 22 23  2  0
 16 24  1  0
 24 25  1  0
 24 26  1  0
 26 27  1  0
 27 28  1  0
 28 29  1  0
 29 30  2  0
 30 31  1  0
 31 32  2  0
 32 33  1  0
 33 34  2  0
 27 35  1  0
 35 36  2  0
 35 37  1  0
 37 38  1  0
 38 39  1  0
 39 40  2  0
 40 41  1  0
 41 42  2  0
 42 43  1  0
 43 44  2  0
 37 45  1  0
 45 46  1  0
 46 47  2  0
 46 48  1  0
 48 49  1  0
 49 50  1  0
 50 51  2  0
 51 52  1  0
 52 53  2  0
 53 54  1  0
 54 55  2  0
 48 56  1  0
 56 57  1  0
 57 58  2  0
 57 59  1  0
 59 60  1  0
 60 61  1  0
 61 62  2  0
 62 63  1  0
 63 64  2  0
 64 65  1  0
 65 66  2  0
 59 67  1  0
 67 68  1  0
 68 69  2  0
 68 70  1  0
 70 71  1  0
 71 72  1  0
 72 73  1  0
 73 74  1  0
 74 75  1  0
 75 76  1  0
 76 77  1  0
 77 78  1  0
 12  8  1  0
 23 18  1  0
 34 29  1  0
 44 39  1  0
 55 50  1  0
 66 61  1  0
 78 71  1  0
 78 74  1  0
M  END
>  <Title>  (100) 
idAADVgen4

$$$$

     RDKit          2D

 69 75  0  0  0  0  0  0  0  0999 V2000
   -3.4140    1.9635    0.0000 C   0  0  0  0  0  0  0  0  0  0  0  0
   -1.9140    1.9635    0.0000 C   0  0  0  0  0  0  0  0  0  0  0  0
   -1.1640    0.6645    0.0000 C   0  0  0  0  0  0  0  0  0  0  0  0
   -1.1640    3.2626    0.0000 C   0  0  0  0  0  0  0  0  0  0  0  0
    0.3360    3.2626    0.0000 N   0  0  0  0  0  0  0  0  0  0  0  0
    1.0860    4.5616    0.0000 C   0  0  0  0  0  0  0  0  0  0  0  0
    0.3360    5.8606    0.0000 C   0  0  0  0  0  0  0  0  0  0  0  0
   -1.1640    5.8606    0.0000 O   0  0  0  0  0  0  0  0  0  0  0  0
    1.0860    7.1597    0.0000 C   0  0  0  0  0  0  0  0  0  0  0  0
    2.5860    7.1597    0.0000 C   0  0  0  0  0  0  0  0  0  0  0  0
    3.3360    5.8606    0.0000 C   0  0  0  0  0  0  0  0  0  0  0  0
    2.5860    4.5616    0.0000 C   0  0  0  0  0  0  0  0  0  0  0  0
    3.3360    3.2626    0.0000 C   0  0  0  0  0  0  0  0  0  0  0  0
    4.8360    3.2626    0.0000 C   0  0  0  0  0  0  0  0  0  0  0  0
    5.5860    4.5616    0.0000 C   0  0  0  0  0  0  0  0  0  0  0  0
    4.8360    5.8606    0.0000 C   0  0  0  0  0  0  0  0  0  0  0  0
    0.3360    8.4587    0.0000 N   0  0  0  0  0  0  0  0  0  0  0  0
   -1.1640    8.4587    0.0000 C   0  0  0  0  0  0  0  0  0  0  0  0
   -1.9140    7.1597    0.0000 O   0  0  0  0  0  0  0  0  0  0  0  0
   -1.9140    9.7578    0.0000 C   0  0  0  0  0  0  0  0  0  0  0  0
   -1.1640   11.0568    0.0000 C   0  0  0  0  0  0  0  0  0  0  0  0
    0.3360   11.0568    0.0000 C   0  0  0  0  0  0  0  0  0  0  0  0
    1.0860    9.7578    0.0000 C   0  0  0  0  0  0  0  0  0  0  0  0
    2.5860    9.7578    0.0000 C   0  0  0  0  0  0  0  0  0  0  0  0
    3.3360   11.0568    0.0000 C   0  0  0  0  0  0  0  0  0  0  0  0
    2.5860   12.3558    0.0000 C   0  0  0  0  0  0  0  0  0  0  0  0
    1.0860   12.3558    0.0000 C   0  0  0  0  0  0  0  0  0  0  0  0
   -3.4140    9.7578    0.0000 N   0  0  0  0  0  0  0  0  0  0  0  0
   -4.1640    8.4587    0.0000 C   0  0  0  0  0  0  0  0  0  0  0  0
   -3.4140    7.1597    0.0000 O   0  0  0  0  0  0  0  0  0  0  0  0
   -5.6640    8.4587    0.0000 C   0  0  0  0  0  0  0  0  0  0  0  0
   -6.4140    9.7578    0.0000 C   0  0  0  0  0  0  0  0  0  0  0  0
   -5.6640   11.0568    0.0000 C   0  0  0  0  0  0  0  0  0  0  0  0
   -6.2741   12.4271    0.0000 C   0  0  0  0  0  0  0  0  0  0  0  0
   -5.1594   13.4308    0.0000 C   0  0  0  0  0  0  0  0  0  0  0  0
   -3.8603   12.6808    0.0000 C   0  0  0  0  0  0  0  0  0  0  0  0
   -4.1722   11.2136    0.0000 C   0  0  0  0  0  0  0  0  0  0  0  0
   -6.4140    7.1597    0.0000 N   0  0  0  0  0  0  0  0  0  0  0  0
   -7.9140    7.1597    0.0000 C   0  0  0  0  0  0  0  0  0  0  0  0
   -8.6640    8.4587    0.0000 O   0  0  0  0  0  0  0  0  0  0  0  0
   -8.6640    5.8606    0.0000 C   0  0  0  0  0  0  0  0  0  0  0  0
   -7.9140    4.5616    0.0000 C   0  0  0  0  0  0  0  0  0  0  0  0
   -6.4140    4.5616    0.0000 C   0  0  0  0  0  0  0  0  0  0  0  0
   -5.6640    5.8606    0.0000 C   0  0  0  0  0  0  0  0  0  0  0  0
   -4.1640    5.8606    0.0000 C   0  0  0  0  0  0  0  0  0  0  0  0
   -3.4140    4.5616    0.0000 C   0  0  0  0  0  0  0  0  0  0  0  0
   -4.1640    3.2626    0.0000 C   0  0  0  0  0  0  0  0  0  0  0  0
   -5.6640    3.2626    0.0000 C   0  0  0  0  0  0  0  0  0  0  0  0
  -10.1640    5.8606    0.0000 N   0  0  0  0  0  0  0  0  0  0  0  0
  -10.9140    7.1597    0.0000 C   0  0  0  0  0  0  0  0  0  0  0  0
  -10.1640    8.4587    0.0000 O   0  0  0  0  0  0  0  0  0  0  0  0
  -12.4140    7.1597    0.0000 O   0  0  0  0  0  0  0  0  0  0  0  0
  -13.1640    5.8606    0.0000 C   0  0  0  0  0  0  0  0  0  0  0  0
  -12.5539    4.4903    0.0000 C   0  0  0  0  0  0  0  0  0  0  0  0
  -13.6686    3.4866    0.0000 O   0  0  0  0  0  0  0  0  0  0  0  0
  -14.9676    4.2366    0.0000 C   0  0  0  0  0  0  0  0  0  0  0  0
  -16.4594    4.0798    0.0000 O   0  0  0  0  0  0  0  0  0  0  0  0
  -17.0695    5.4502    0.0000 C   0  0  0  0  0  0  0  0  0  0  0  0
  -15.9548    6.4538    0.0000 C   0  0  0  0  0  0  0  0  0  0  0  0
  -14.6557    5.7038    0.0000 C   0  0  0  0  0  0  0  0  0  0  0  0
    1.0860    1.9635    0.0000 S   0  0  0  0  0  0  0  0  0  0  0  0
   -0.2130    1.2135    0.0000 O   0  0  0  0  0  0  0  0  0  0  0  0
    2.3851    2.7135    0.0000 O   0  0  0  0  0  0  0  0  0  0  0  0
    1.8360    0.6645    0.0000 C   0  0  0  0  0  0  0  0  0  0  0  0
    3.3360    0.6645    0.0000 C   0  0  0  0  0  0  0  0  0  0  0  0
    4.0860   -0.6346    0.0000 C   0  0  0  0  0  0  0  0  0  0  0  0
    3.3360   -1.9336    0.0000 C   0  0  0  0  0  0  0  0  0  0  0  0
    1.8360   -1.9336    0.0000 C   0  0  0  0  0  0  0  0  0  0  0  0
    1.0860   -0.6346    0.0000 C   0  0  0  0  0  0  0  0  0  0  0  0
  1  2  1  0
  2  3  1  0
  2  4  1  0
  4  5  1  0
  5  6  1  0
  6  7  1  0
  7  8  1  0
  7  9  1  0
  9 10  1  0
 10 11  1  0
 11 12  2  0
 12 13  1  0
 13 14  2  0
 14 15  1  0
 15 16  2  0
  9 17  1  0
 17 18  1  0
 18 19  2  0
 18 20  1  0
 20 21  1  0
 21 22  1  0
 22 23  2  0
 23 24  1  0
 24 25  2  0
 25 26  1  0
 26 27  2  0
 20 28  1  0
 28 29  1  0
 29 30  2  0
 29 31  1  0
 31 32  1  0
 32 33  1  0
 33 34  1  0
 34 35  1  0
 35 36  1  0
 36 37  1  0
 31 38  1  0
 38 39  1  0
 39 40  2  0
 39 41  1  0
 41 42  1  0
 42 43  1  0
 43 44  2  0
 44 45  1  0
 45 46  2  0
 46 47  1  0
 47 48  2  0
 41 49  1  0
 49 50  1  0
 50 51  2  0
 50 52  1  0
 52 53  1  0
 53 54  1  0
 54 55  1  0
 55 56  1  0
 56 57  1  0
 57 58  1  0
 58 59  1  0
 59 60  1  0
  5 61  1  0
 61 62  2  0
 61 63  2  0
 61 64  1  0
 64 65  2  0
 65 66  1  0
 66 67  2  0
 67 68  1  0
 68 69  2  0
 16 11  1  0
 27 22  1  0
 37 33  1  0
 48 43  1  0
 60 53  1  0
 69 64  1  0
 60 56  1  0
M  END
>  <Title>  (101) 
idAADWgen4

$$$$

     RDKit          2D

 30 32  0  0  0  0  0  0  0  0999 V2000
   -5.3849    0.4488    0.0000 C   0  0  0  0  0  0  0  0  0  0  0  0
   -3.9583   -0.0147    0.0000 C   0  0  0  0  0  0  0  0  0  0  0  0
   -2.5317   -0.4783    0.0000 C   0  0  0  0  0  0  0  0  0  0  0  0
   -3.4948    1.4118    0.0000 C   0  0  0  0  0  0  0  0  0  0  0  0
   -4.4218   -1.4413    0.0000 N   0  0  0  0  0  0  0  0  0  0  0  0
   -3.4182   -2.5560    0.0000 C   0  0  0  0  0  0  0  0  0  0  0  0
   -1.9509   -2.2442    0.0000 O   0  0  0  0  0  0  0  0  0  0  0  0
   -3.8817   -3.9826    0.0000 C   0  0  0  0  0  0  0  0  0  0  0  0
   -5.3083   -4.4462    0.0000 C   0  0  0  0  0  0  0  0  0  0  0  0
   -5.3083   -5.9462    0.0000 C   0  0  0  0  0  0  0  0  0  0  0  0
   -3.8817   -6.4097    0.0000 C   0  0  0  0  0  0  0  0  0  0  0  0
   -3.0000   -5.1962    0.0000 C   0  0  0  0  0  0  0  0  0  0  0  0
   -1.5000   -5.1962    0.0000 C   0  0  0  0  0  0  0  0  0  0  0  0
   -0.7500   -6.4952    0.0000 O   0  0  0  0  0  0  0  0  0  0  0  0
   -0.7500   -3.8971    0.0000 N   0  0  0  0  0  0  0  0  0  0  0  0
    0.7500   -3.8971    0.0000 C   0  0  0  0  0  0  0  0  0  0  0  0
    1.5000   -2.5981    0.0000 C   0  0  0  0  0  0  0  0  0  0  0  0
    0.7500   -1.2990    0.0000 C   0  0  0  0  0  0  0  0  0  0  0  0
    1.5000    0.0000    0.0000 C   0  0  0  0  0  0  0  0  0  0  0  0
    0.7500    1.2990    0.0000 C   0  0  0  0  0  0  0  0  0  0  0  0
   -0.7500    1.2990    0.0000 C   0  0  0  0  0  0  0  0  0  0  0  0
   -1.5000    0.0000    0.0000 C   0  0  0  0  0  0  0  0  0  0  0  0
   -0.7500   -1.2990    0.0000 C   0  0  0  0  0  0  0  0  0  0  0  0
    1.5000   -5.1962    0.0000 C   0  0  0  0  0  0  0  0  0  0  0  0
    3.0000   -5.1962    0.0000 C   0  0  0  0  0  0  0  0  0  0  0  0
    3.7500   -6.4952    0.0000 C   0  0  0  0  0  0  0  0  0  0  0  0
    5.2500   -6.4952    0.0000 C   0  0  0  0  0  0  0  0  0  0  0  0
    6.0000   -5.1962    0.0000 C   0  0  0  0  0  0  0  0  0  0  0  0
    5.2500   -3.8971    0.0000 C   0  0  0  0  0  0  0  0  0  0  0  0
    3.7500   -3.8971    0.0000 C   0  0  0  0  0  0  0  0  0  0  0  0
  1  2  1  0
  2  3  1  0
  2  4  1  0
  2  5  1  0
  5  6  1  0
  6  7  2  0
  6  8  1  0
  8  9  1  0
  9 10  1  0
 10 11  1  0
 11 12  1  0
 12 13  1  0
 13 14  2  0
 13 15  1  0
 15 16  1  0
 16 17  1  0
 17 18  1  0
 18 19  2  0
 19 20  1  0
 20 21  2  0
 21 22  1  0
 22 23  2  0
 16 24  1  0
 24 25  1  0
 25 26  2  0
 26 27  1  0
 27 28  2  0
 28 29  1  0
 29 30  2  0
 12  8  1  0
 23 18  1  0
 30 25  1  0
M  END
>  <Title>  (102) 
idAADXgen4

$$$$

     RDKit          2D

 24 26  0  0  0  0  0  0  0  0999 V2000
    3.3960    0.8957    0.0000 C   0  0  0  0  0  0  0  0  0  0  0  0
    2.1929    0.0000    0.0000 C   0  0  0  0  0  0  0  0  0  0  0  0
    3.3960   -0.8957    0.0000 C   0  0  0  0  0  0  0  0  0  0  0  0
    1.6798    1.4095    0.0000 C   0  0  0  0  0  0  0  0  0  0  0  0
    0.3808    2.1595    0.0000 C   0  0  0  0  0  0  0  0  0  0  0  0
   -1.0964    1.8991    0.0000 C   0  0  0  0  0  0  0  0  0  0  0  0
   -2.0606    0.7500    0.0000 C   0  0  0  0  0  0  0  0  0  0  0  0
   -3.2334    1.6852    0.0000 C   0  0  0  0  0  0  0  0  0  0  0  0
   -4.6957    1.3515    0.0000 C   0  0  0  0  0  0  0  0  0  0  0  0
   -5.3466   -0.0000    0.0000 C   0  0  0  0  0  0  0  0  0  0  0  0
   -4.6957   -1.3515    0.0000 C   0  0  0  0  0  0  0  0  0  0  0  0
   -3.2334   -1.6852    0.0000 C   0  0  0  0  0  0  0  0  0  0  0  0
   -2.8996   -3.1476    0.0000 C   0  0  0  0  0  0  0  0  0  0  0  0
   -3.9992   -4.1679    0.0000 C   0  0  0  0  0  0  0  0  0  0  0  0
   -3.6654   -5.6303    0.0000 C   0  0  0  0  0  0  0  0  0  0  0  0
   -2.2861   -6.2198    0.0000 C   0  0  0  0  0  0  0  0  0  0  0  0
   -2.4205   -7.7138    0.0000 C   0  0  0  0  0  0  0  0  0  0  0  0
   -3.8829   -8.0476    0.0000 C   0  0  0  0  0  0  0  0  0  0  0  0
   -4.6523   -6.7599    0.0000 C   0  0  0  0  0  0  0  0  0  0  0  0
   -2.0606   -0.7500    0.0000 C   0  0  0  0  0  0  0  0  0  0  0  0
   -2.2100   -2.2425    0.0000 C   0  0  0  0  0  0  0  0  0  0  0  0
   -1.0964   -1.8991    0.0000 C   0  0  0  0  0  0  0  0  0  0  0  0
    0.3808   -2.1595    0.0000 C   0  0  0  0  0  0  0  0  0  0  0  0
    1.6798   -1.4095    0.0000 C   0  0  0  0  0  0  0  0  0  0  0  0
  1  2  1  0
  2  3  1  0
  2  4  1  0
  4  5  1  0
  5  6  1  0
  6  7  1  0
  7  8  1  0
  8  9  1  0
  9 10  1  0
 10 11  1  0
 11 12  1  0
 12 13  1  0
 13 14  1  0
 14 15  1  0
 15 16  1  0
 16 17  1  0
 17 18  1  0
 18 19  1  0
 12 20  1  0
 20 21  1  0
 20 22  1  0
 22 23  1  0
 23 24  1  0
 24  2  1  0
 20  7  1  0
 19 15  1  0
M  END
>  <Title>  (103) 
idAADYgen4

$$$$

     RDKit          2D

 70 74  0  0  0  0  0  0  0  0999 V2000
    6.6478   -2.7990    0.0000 C   0  0  0  0  0  0  0  0  0  0  0  0
    6.6478   -1.2990    0.0000 C   0  0  0  0  0  0  0  0  0  0  0  0
    6.6478    0.2010    0.0000 C   0  0  0  0  0  0  0  0  0  0  0  0
    8.1478   -1.2990    0.0000 C   0  0  0  0  0  0  0  0  0  0  0  0
    5.1478   -1.2990    0.0000 N   0  0  0  0  0  0  0  0  0  0  0  0
    4.3978    0.0000    0.0000 C   0  0  0  0  0  0  0  0  0  0  0  0
    5.1478    1.2990    0.0000 O   0  0  0  0  0  0  0  0  0  0  0  0
    2.8978    0.0000    0.0000 C   0  0  0  0  0  0  0  0  0  0  0  0
    2.5095   -1.4489    0.0000 C   0  0  0  0  0  0  0  0  0  0  0  0
    1.4489   -2.5095    0.0000 C   0  0  0  0  0  0  0  0  0  0  0  0
   -0.0000   -2.8978    0.0000 C   0  0  0  0  0  0  0  0  0  0  0  0
   -1.4489   -2.5095    0.0000 C   0  0  0  0  0  0  0  0  0  0  0  0
   -2.5095   -1.4489    0.0000 C   0  0  0  0  0  0  0  0  0  0  0  0
   -2.8978    0.0000    0.0000 C   0  0  0  0  0  0  0  0  0  0  0  0
   -2.5095    1.4489    0.0000 C   0  0  0  0  0  0  0  0  0  0  0  0
   -1.4489    2.5095    0.0000 C   0  0  0  0  0  0  0  0  0  0  0  0
   -2.1989    3.8086    0.0000 C   0  0  0  0  0  0  0  0  0  0  0  0
   -3.6989    3.8086    0.0000 O   0  0  0  0  0  0  0  0  0  0  0  0
   -1.4489    5.1076    0.0000 N   0  0  0  0  0  0  0  0  0  0  0  0
   -2.1989    6.4067    0.0000 C   0  0  0  0  0  0  0  0  0  0  0  0
   -1.4489    7.7057    0.0000 C   0  0  0  0  0  0  0  0  0  0  0  0
   -2.1989    9.0047    0.0000 C   0  0  0  0  0  0  0  0  0  0  0  0
   -1.4489   10.3038    0.0000 C   0  0  0  0  0  0  0  0  0  0  0  0
   -2.1989   11.6028    0.0000 C   0  0  0  0  0  0  0  0  0  0  0  0
   -3.6989   11.6028    0.0000 C   0  0  0  0  0  0  0  0  0  0  0  0
   -4.4489   10.3038    0.0000 C   0  0  0  0  0  0  0  0  0  0  0  0
   -3.6989    9.0047    0.0000 C   0  0  0  0  0  0  0  0  0  0  0  0
   -3.6989    6.4067    0.0000 C   0  0  0  0  0  0  0  0  0  0  0  0
   -4.4489    5.1076    0.0000 O   0  0  0  0  0  0  0  0  0  0  0  0
   -4.4489    7.7057    0.0000 N   0  0  0  0  0  0  0  0  0  0  0  0
   -5.9489    7.7057    0.0000 C   0  0  0  0  0  0  0  0  0  0  0  0
   -6.6989    9.0047    0.0000 C   0  0  0  0  0  0  0  0  0  0  0  0
   -8.1989    9.0047    0.0000 C   0  0  0  0  0  0  0  0  0  0  0  0
   -8.9489   10.3038    0.0000 C   0  0  0  0  0  0  0  0  0  0  0  0
  -10.4489   10.3038    0.0000 C   0  0  0  0  0  0  0  0  0  0  0  0
  -11.1989    9.0047    0.0000 C   0  0  0  0  0  0  0  0  0  0  0  0
  -10.4489    7.7057    0.0000 C   0  0  0  0  0  0  0  0  0  0  0  0
   -8.9489    7.7057    0.0000 C   0  0  0  0  0  0  0  0  0  0  0  0
   -6.6989    6.4067    0.0000 C   0  0  0  0  0  0  0  0  0  0  0  0
   -5.9489    5.1076    0.0000 O   0  0  0  0  0  0  0  0  0  0  0  0
   -8.1989    6.4067    0.0000 N   0  0  0  0  0  0  0  0  0  0  0  0
   -8.9489    5.1076    0.0000 C   0  0  0  0  0  0  0  0  0  0  0  0
  -10.4489    5.1076    0.0000 C   0  0  0  0  0  0  0  0  0  0  0  0
  -11.1989    3.8086    0.0000 C   0  0  0  0  0  0  0  0  0  0  0  0
  -12.6989    3.8086    0.0000 C   0  0  0  0  0  0  0  0  0  0  0  0
  -13.4489    2.5095    0.0000 C   0  0  0  0  0  0  0  0  0  0  0  0
  -12.6989    1.2105    0.0000 C   0  0  0  0  0  0  0  0  0  0  0  0
  -11.1989    1.2105    0.0000 C   0  0  0  0  0  0  0  0  0  0  0  0
  -10.4489    2.5095    0.0000 C   0  0  0  0  0  0  0  0  0  0  0  0
   -8.1989    3.8086    0.0000 C   0  0  0  0  0  0  0  0  0  0  0  0
   -6.6989    3.8086    0.0000 O   0  0  0  0  0  0  0  0  0  0  0  0
   -8.9489    2.5095    0.0000 N   0  0  0  0  0  0  0  0  0  0  0  0
   -8.1989    1.2105    0.0000 C   0  0  0  0  0  0  0  0  0  0  0  0
   -6.6989    1.2105    0.0000 C   0  0  0  0  0  0  0  0  0  0  0  0
   -5.9489   -0.0885    0.0000 C   0  0  0  0  0  0  0  0  0  0  0  0
   -4.4489   -0.0885    0.0000 C   0  0  0  0  0  0  0  0  0  0  0  0
   -3.6989   -1.3876    0.0000 C   0  0  0  0  0  0  0  0  0  0  0  0
   -4.4489   -2.6866    0.0000 C   0  0  0  0  0  0  0  0  0  0  0  0
   -5.9489   -2.6866    0.0000 C   0  0  0  0  0  0  0  0  0  0  0  0
   -6.6989   -1.3876    0.0000 C   0  0  0  0  0  0  0  0  0  0  0  0
   -8.9489   -0.0885    0.0000 C   0  0  0  0  0  0  0  0  0  0  0  0
   -8.1989   -1.3876    0.0000 O   0  0  0  0  0  0  0  0  0  0  0  0
  -10.4489   -0.0885    0.0000 O   0  0  0  0  0  0  0  0  0  0  0  0
  -11.1989   -1.3876    0.0000 C   0  0  0  0  0  0  0  0  0  0  0  0
   -9.8999   -2.1376    0.0000 C   0  0  0  0  0  0  0  0  0  0  0  0
  -12.4979   -0.6376    0.0000 C   0  0  0  0  0  0  0  0  0  0  0  0
  -11.9489   -2.6866    0.0000 C   0  0  0  0  0  0  0  0  0  0  0  0
    0.0000    2.8978    0.0000 C   0  0  0  0  0  0  0  0  0  0  0  0
    1.4489    2.5095    0.0000 C   0  0  0  0  0  0  0  0  0  0  0  0
    2.5095    1.4489    0.0000 C   0  0  0  0  0  0  0  0  0  0  0  0
  1  2  1  0
  2  3  1  0
  2  4  1  0
  2  5  1  0
  5  6  1  0
  6  7  2  0
  6  8  1  0
  8  9  1  0
  9 10  1  0
 10 11  1  0
 11 12  1  0
 12 13  1  0
 13 14  1  0
 14 15  1  0
 15 16  1  0
 16 17  1  0
 17 18  2  0
 17 19  1  0
 19 20  1  0
 20 21  1  0
 21 22  1  0
 22 23  2  0
 23 24  1  0
 24 25  2  0
 25 26  1  0
 26 27  2  0
 20 28  1  0
 28 29  2  0
 28 30  1  0
 30 31  1  0
 31 32  1  0
 32 33  1  0
 33 34  2  0
 34 35  1  0
 35 36  2  0
 36 37  1  0
 37 38  2  0
 31 39  1  0
 39 40  2  0
 39 41  1  0
 41 42  1  0
 42 43  1  0
 43 44  1  0
 44 45  2  0
 45 46  1  0
 46 47  2  0
 47 48  1  0
 48 49  2  0
 42 50  1  0
 50 51  2  0
 50 52  1  0
 52 53  1  0
 53 54  1  0
 54 55  1  0
 55 56  2  0
 56 57  1  0
 57 58  2  0
 58 59  1  0
 59 60  2  0
 53 61  1  0
 61 62  2  0
 61 63  1  0
 63 64  1  0
 64 65  1  0
 64 66  1  0
 64 67  1  0
 16 68  1  0
 68 69  1  0
 69 70  1  0
 70  8  1  0
 27 22  1  0
 38 33  1  0
 49 44  1  0
 60 55  1  0
M  END
>  <Title>  (104) 
idAADZgen4

$$$$

     RDKit          2D

 61 66  0  0  0  0  0  0  0  0999 V2000
    1.0860    7.1597    0.0000 C   0  0  0  0  0  0  0  0  0  0  0  0
    0.3360    8.4587    0.0000 C   0  0  0  0  0  0  0  0  0  0  0  0
    1.0860    9.7578    0.0000 C   0  0  0  0  0  0  0  0  0  0  0  0
   -1.1640    8.4587    0.0000 C   0  0  0  0  0  0  0  0  0  0  0  0
   -1.9140    9.7578    0.0000 N   0  0  0  0  0  0  0  0  0  0  0  0
   -3.4140    9.7578    0.0000 C   0  0  0  0  0  0  0  0  0  0  0  0
   -4.1640    8.4587    0.0000 C   0  0  0  0  0  0  0  0  0  0  0  0
   -3.4140    7.1597    0.0000 O   0  0  0  0  0  0  0  0  0  0  0  0
   -5.6640    8.4587    0.0000 C   0  0  0  0  0  0  0  0  0  0  0  0
   -6.4140    9.7578    0.0000 C   0  0  0  0  0  0  0  0  0  0  0  0
   -5.6640   11.0568    0.0000 C   0  0  0  0  0  0  0  0  0  0  0  0
   -4.1640   11.0568    0.0000 C   0  0  0  0  0  0  0  0  0  0  0  0
   -3.4140   12.3558    0.0000 C   0  0  0  0  0  0  0  0  0  0  0  0
   -4.1640   13.6549    0.0000 C   0  0  0  0  0  0  0  0  0  0  0  0
   -5.6640   13.6549    0.0000 C   0  0  0  0  0  0  0  0  0  0  0  0
   -6.4140   12.3558    0.0000 C   0  0  0  0  0  0  0  0  0  0  0  0
   -6.4140    7.1597    0.0000 N   0  0  0  0  0  0  0  0  0  0  0  0
   -5.6640    5.8606    0.0000 C   0  0  0  0  0  0  0  0  0  0  0  0
   -4.1640    5.8606    0.0000 O   0  0  0  0  0  0  0  0  0  0  0  0
   -6.4140    4.5616    0.0000 C   0  0  0  0  0  0  0  0  0  0  0  0
   -7.9140    4.5616    0.0000 C   0  0  0  0  0  0  0  0  0  0  0  0
   -8.6640    5.8606    0.0000 C   0  0  0  0  0  0  0  0  0  0  0  0
   -7.9140    7.1597    0.0000 C   0  0  0  0  0  0  0  0  0  0  0  0
   -8.6640    8.4587    0.0000 C   0  0  0  0  0  0  0  0  0  0  0  0
  -10.1640    8.4587    0.0000 C   0  0  0  0  0  0  0  0  0  0  0  0
  -10.9140    7.1597    0.0000 C   0  0  0  0  0  0  0  0  0  0  0  0
  -10.1640    5.8606    0.0000 C   0  0  0  0  0  0  0  0  0  0  0  0
   -5.6640    3.2626    0.0000 N   0  0  0  0  0  0  0  0  0  0  0  0
   -4.1640    3.2626    0.0000 C   0  0  0  0  0  0  0  0  0  0  0  0
   -3.4140    4.5616    0.0000 O   0  0  0  0  0  0  0  0  0  0  0  0
   -3.4140    1.9635    0.0000 O   0  0  0  0  0  0  0  0  0  0  0  0
   -1.9140    1.9635    0.0000 C   0  0  0  0  0  0  0  0  0  0  0  0
   -1.0323    3.1771    0.0000 C   0  0  0  0  0  0  0  0  0  0  0  0
    0.3943    2.7135    0.0000 O   0  0  0  0  0  0  0  0  0  0  0  0
    0.3943    1.2135    0.0000 C   0  0  0  0  0  0  0  0  0  0  0  0
    1.2760    0.0000    0.0000 O   0  0  0  0  0  0  0  0  0  0  0  0
    0.3943   -1.2135    0.0000 C   0  0  0  0  0  0  0  0  0  0  0  0
   -1.0323   -0.7500    0.0000 C   0  0  0  0  0  0  0  0  0  0  0  0
   -1.0323    0.7500    0.0000 C   0  0  0  0  0  0  0  0  0  0  0  0
   -1.1640   11.0568    0.0000 S   0  0  0  0  0  0  0  0  0  0  0  0
   -2.4630   11.8068    0.0000 O   0  0  0  0  0  0  0  0  0  0  0  0
    0.1351   10.3068    0.0000 O   0  0  0  0  0  0  0  0  0  0  0  0
   -0.4140   12.3558    0.0000 C   0  0  0  0  0  0  0  0  0  0  0  0
   -1.1640   13.6549    0.0000 C   0  0  0  0  0  0  0  0  0  0  0  0
   -0.4140   14.9539    0.0000 C   0  0  0  0  0  0  0  0  0  0  0  0
    1.0860   14.9539    0.0000 C   0  0  0  0  0  0  0  0  0  0  0  0
    1.8360   16.2529    0.0000 N   0  0  0  0  0  0  0  0  0  0  0  0
    3.3360   16.2529    0.0000 C   0  0  0  0  0  0  0  0  0  0  0  0
    4.0860   14.9539    0.0000 C   0  0  0  0  0  0  0  0  0  0  0  0
    3.3360   13.6549    0.0000 O   0  0  0  0  0  0  0  0  0  0  0  0
    5.5860   14.9539    0.0000 O   0  0  0  0  0  0  0  0  0  0  0  0
    1.0860   17.5520    0.0000 C   0  0  0  0  0  0  0  0  0  0  0  0
   -0.4140   17.5520    0.0000 O   0  0  0  0  0  0  0  0  0  0  0  0
    1.8360   18.8510    0.0000 C   0  0  0  0  0  0  0  0  0  0  0  0
    1.0860   20.1501    0.0000 C   0  0  0  0  0  0  0  0  0  0  0  0
    1.8360   21.4491    0.0000 C   0  0  0  0  0  0  0  0  0  0  0  0
    3.3360   21.4491    0.0000 C   0  0  0  0  0  0  0  0  0  0  0  0
    4.0860   20.1501    0.0000 C   0  0  0  0  0  0  0  0  0  0  0  0
    3.3360   18.8510    0.0000 C   0  0  0  0  0  0  0  0  0  0  0  0
    1.8360   13.6549    0.0000 C   0  0  0  0  0  0  0  0  0  0  0  0
    1.0860   12.3558    0.0000 C   0  0  0  0  0  0  0  0  0  0  0  0
  1  2  1  0
  2  3  1  0
  2  4  1  0
  4  5  1  0
  5  6  1  0
  6  7  1  0
  7  8  1  0
  7  9  1  0
  9 10  1  0
 10 11  1  0
 11 12  2  0
 12 13  1  0
 13 14  2  0
 14 15  1  0
 15 16  2  0
  9 17  1  0
 17 18  1  0
 18 19  2  0
 18 20  1  0
 20 21  1  0
 21 22  1  0
 22 23  2  0
 23 24  1  0
 24 25  2  0
 25 26  1  0
 26 27  2  0
 20 28  1  0
 28 29  1  0
 29 30  2  0
 29 31  1  0
 31 32  1  0
 32 33  1  0
 33 34  1  0
 34 35  1  0
 35 36  1  0
 36 37  1  0
 37 38  1  0
 38 39  1  0
  5 40  1  0
 40 41  2  0
 40 42  2  0
 40 43  1  0
 43 44  2  0
 44 45  1  0
 45 46  2  0
 46 47  1  0
 47 48  1  0
 48 49  1  0
 49 50  2  0
 49 51  1  0
 47 52  1  0
 52 53  2  0
 52 54  1  0
 54 55  2  0
 55 56  1  0
 56 57  2  0
 57 58  1  0
 58 59  2  0
 46 60  1  0
 60 61  2  0
 16 11  1  0
 27 22  1  0
 39 32  1  0
 61 43  1  0
 39 35  1  0
 59 54  1  0
M  END
>  <Title>  (105) 
idAAEAgen4

$$$$

     RDKit          2D

 31 33  0  0  0  0  0  0  0  0999 V2000
    7.5000   -2.5981    0.0000 C   0  0  0  0  0  0  0  0  0  0  0  0
    6.0000   -2.5981    0.0000 C   0  0  0  0  0  0  0  0  0  0  0  0
    5.2500   -1.2990    0.0000 C   0  0  0  0  0  0  0  0  0  0  0  0
    3.7500   -1.2990    0.0000 C   0  0  0  0  0  0  0  0  0  0  0  0
    3.0000    0.0000    0.0000 O   0  0  0  0  0  0  0  0  0  0  0  0
    1.5000    0.0000    0.0000 C   0  0  0  0  0  0  0  0  0  0  0  0
    0.7500   -1.2990    0.0000 C   0  0  0  0  0  0  0  0  0  0  0  0
   -0.7500   -1.2990    0.0000 C   0  0  0  0  0  0  0  0  0  0  0  0
   -1.5000    0.0000    0.0000 C   0  0  0  0  0  0  0  0  0  0  0  0
   -0.7500    1.2990    0.0000 C   0  0  0  0  0  0  0  0  0  0  0  0
    0.7500    1.2990    0.0000 C   0  0  0  0  0  0  0  0  0  0  0  0
    1.5000    2.5981    0.0000 C   0  0  0  0  0  0  0  0  0  0  0  0
    3.0000    2.5981    0.0000 N   0  0  0  0  0  0  0  0  0  0  0  0
    3.7500    3.8971    0.0000 C   0  0  0  0  0  0  0  0  0  0  0  0
    3.0000    5.1962    0.0000 O   0  0  0  0  0  0  0  0  0  0  0  0
    5.2500    3.8971    0.0000 C   0  0  0  0  0  0  0  0  0  0  0  0
    6.0000    5.1962    0.0000 C   0  0  0  0  0  0  0  0  0  0  0  0
    7.5000    5.1962    0.0000 C   0  0  0  0  0  0  0  0  0  0  0  0
    8.2500    6.4952    0.0000 C   0  0  0  0  0  0  0  0  0  0  0  0
    7.5000    7.7942    0.0000 C   0  0  0  0  0  0  0  0  0  0  0  0
    8.2500    9.0933    0.0000 N   0  0  0  0  0  0  0  0  0  0  0  0
    9.7500    9.0933    0.0000 C   0  0  0  0  0  0  0  0  0  0  0  0
   10.5000    7.7942    0.0000 O   0  0  0  0  0  0  0  0  0  0  0  0
   10.5000   10.3923    0.0000 C   0  0  0  0  0  0  0  0  0  0  0  0
   12.0000   10.3923    0.0000 C   0  0  0  0  0  0  0  0  0  0  0  0
   12.7500   11.6913    0.0000 C   0  0  0  0  0  0  0  0  0  0  0  0
   12.0000   12.9904    0.0000 C   0  0  0  0  0  0  0  0  0  0  0  0
   10.5000   12.9904    0.0000 C   0  0  0  0  0  0  0  0  0  0  0  0
    9.7500   11.6913    0.0000 C   0  0  0  0  0  0  0  0  0  0  0  0
    6.0000    7.7942    0.0000 C   0  0  0  0  0  0  0  0  0  0  0  0
    5.2500    6.4952    0.0000 C   0  0  0  0  0  0  0  0  0  0  0  0
  1  2  1  0
  2  3  1  0
  3  4  1  0
  4  5  1  0
  5  6  1  0
  6  7  2  0
  7  8  1  0
  8  9  2  0
  9 10  1  0
 10 11  2  0
 11 12  1  0
 12 13  1  0
 13 14  1  0
 14 15  2  0
 14 16  1  0
 16 17  1  0
 17 18  2  0
 18 19  1  0
 19 20  2  0
 20 21  1  0
 21 22  1  0
 22 23  2  0
 22 24  1  0
 24 25  2  0
 25 26  1  0
 26 27  2  0
 27 28  1  0
 28 29  2  0
 20 30  1  0
 30 31  2  0
 11  6  1  0
 31 17  1  0
 29 24  1  0
M  END
>  <Title>  (106) 
idAAEBgen4

$$$$

     RDKit          2D

 59 64  0  0  0  0  0  0  0  0999 V2000
    1.0860   12.3558    0.0000 C   0  0  0  0  0  0  0  0  0  0  0  0
    0.3360   11.0568    0.0000 C   0  0  0  0  0  0  0  0  0  0  0  0
    1.0860    9.7578    0.0000 C   0  0  0  0  0  0  0  0  0  0  0  0
   -1.1640   11.0568    0.0000 C   0  0  0  0  0  0  0  0  0  0  0  0
   -1.9140    9.7578    0.0000 N   0  0  0  0  0  0  0  0  0  0  0  0
   -3.4140    9.7578    0.0000 C   0  0  0  0  0  0  0  0  0  0  0  0
   -4.1640    8.4587    0.0000 C   0  0  0  0  0  0  0  0  0  0  0  0
   -3.4140    7.1597    0.0000 O   0  0  0  0  0  0  0  0  0  0  0  0
   -5.6640    8.4587    0.0000 C   0  0  0  0  0  0  0  0  0  0  0  0
   -6.4140    9.7578    0.0000 C   0  0  0  0  0  0  0  0  0  0  0  0
   -5.6640   11.0568    0.0000 C   0  0  0  0  0  0  0  0  0  0  0  0
   -4.1640   11.0568    0.0000 C   0  0  0  0  0  0  0  0  0  0  0  0
   -3.4140   12.3558    0.0000 C   0  0  0  0  0  0  0  0  0  0  0  0
   -4.1640   13.6549    0.0000 C   0  0  0  0  0  0  0  0  0  0  0  0
   -5.6640   13.6549    0.0000 C   0  0  0  0  0  0  0  0  0  0  0  0
   -6.4140   12.3558    0.0000 C   0  0  0  0  0  0  0  0  0  0  0  0
   -6.4140    7.1597    0.0000 N   0  0  0  0  0  0  0  0  0  0  0  0
   -5.6640    5.8606    0.0000 C   0  0  0  0  0  0  0  0  0  0  0  0
   -4.1640    5.8606    0.0000 O   0  0  0  0  0  0  0  0  0  0  0  0
   -6.4140    4.5616    0.0000 C   0  0  0  0  0  0  0  0  0  0  0  0
   -7.9140    4.5616    0.0000 C   0  0  0  0  0  0  0  0  0  0  0  0
   -8.6640    5.8606    0.0000 C   0  0  0  0  0  0  0  0  0  0  0  0
   -7.9140    7.1597    0.0000 C   0  0  0  0  0  0  0  0  0  0  0  0
   -8.6640    8.4587    0.0000 C   0  0  0  0  0  0  0  0  0  0  0  0
  -10.1640    8.4587    0.0000 C   0  0  0  0  0  0  0  0  0  0  0  0
  -10.9140    7.1597    0.0000 C   0  0  0  0  0  0  0  0  0  0  0  0
  -10.1640    5.8606    0.0000 C   0  0  0  0  0  0  0  0  0  0  0  0
   -5.6640    3.2626    0.0000 N   0  0  0  0  0  0  0  0  0  0  0  0
   -4.1640    3.2626    0.0000 C   0  0  0  0  0  0  0  0  0  0  0  0
   -3.4140    4.5616    0.0000 O   0  0  0  0  0  0  0  0  0  0  0  0
   -3.4140    1.9635    0.0000 O   0  0  0  0  0  0  0  0  0  0  0  0
   -1.9140    1.9635    0.0000 C   0  0  0  0  0  0  0  0  0  0  0  0
   -1.0323    3.1771    0.0000 C   0  0  0  0  0  0  0  0  0  0  0  0
    0.3943    2.7135    0.0000 O   0  0  0  0  0  0  0  0  0  0  0  0
    0.3943    1.2135    0.0000 C   0  0  0  0  0  0  0  0  0  0  0  0
    1.2760    0.0000    0.0000 O   0  0  0  0  0  0  0  0  0  0  0  0
    0.3943   -1.2135    0.0000 C   0  0  0  0  0  0  0  0  0  0  0  0
   -1.0323   -0.7500    0.0000 C   0  0  0  0  0  0  0  0  0  0  0  0
   -1.0323    0.7500    0.0000 C   0  0  0  0  0  0  0  0  0  0  0  0
   -1.1640    8.4587    0.0000 S   0  0  0  0  0  0  0  0  0  0  0  0
   -2.4630    7.7087    0.0000 O   0  0  0  0  0  0  0  0  0  0  0  0
    0.1351    9.2087    0.0000 O   0  0  0  0  0  0  0  0  0  0  0  0
   -0.4140    7.1597    0.0000 C   0  0  0  0  0  0  0  0  0  0  0  0
   -1.1640    5.8606    0.0000 C   0  0  0  0  0  0  0  0  0  0  0  0
   -0.4140    4.5616    0.0000 C   0  0  0  0  0  0  0  0  0  0  0  0
    1.0860    4.5616    0.0000 C   0  0  0  0  0  0  0  0  0  0  0  0
    1.8360    3.2626    0.0000 N   0  0  0  0  0  0  0  0  0  0  0  0
    3.3360    3.2626    0.0000 C   0  0  0  0  0  0  0  0  0  0  0  0
    4.0860    4.5616    0.0000 O   0  0  0  0  0  0  0  0  0  0  0  0
    4.0860    1.9635    0.0000 C   0  0  0  0  0  0  0  0  0  0  0  0
    5.5860    1.9635    0.0000 C   0  0  0  0  0  0  0  0  0  0  0  0
    6.3360    0.6645    0.0000 C   0  0  0  0  0  0  0  0  0  0  0  0
    5.5860   -0.6346    0.0000 C   0  0  0  0  0  0  0  0  0  0  0  0
    6.3360   -1.9336    0.0000 C   0  0  0  0  0  0  0  0  0  0  0  0
    7.8360   -1.9336    0.0000 C   0  0  0  0  0  0  0  0  0  0  0  0
    8.5860   -0.6346    0.0000 C   0  0  0  0  0  0  0  0  0  0  0  0
    7.8360    0.6645    0.0000 C   0  0  0  0  0  0  0  0  0  0  0  0
    1.8360    5.8606    0.0000 C   0  0  0  0  0  0  0  0  0  0  0  0
    1.0860    7.1597    0.0000 C   0  0  0  0  0  0  0  0  0  0  0  0
  1  2  1  0
  2  3  1  0
  2  4  1  0
  4  5  1  0
  5  6  1  0
  6  7  1  0
  7  8  1  0
  7  9  1  0
  9 10  1  0
 10 11  1  0
 11 12  2  0
 12 13  1  0
 13 14  2  0
 14 15  1  0
 15 16  2  0
  9 17  1  0
 17 18  1  0
 18 19  2  0
 18 20  1  0
 20 21  1  0
 21 22  1  0
 22 23  2  0
 23 24  1  0
 24 25  2  0
 25 26  1  0
 26 27  2  0
 20 28  1  0
 28 29  1  0
 29 30  2  0
 29 31  1  0
 31 32  1  0
 32 33  1  0
 33 34  1  0
 34 35  1  0
 35 36  1  0
 36 37  1  0
 37 38  1  0
 38 39  1  0
  5 40  1  0
 40 41  2  0
 40 42  2  0
 40 43  1  0
 43 44  2  0
 44 45  1  0
 45 46  2  0
 46 47  1  0
 47 48  1  0
 48 49  2  0
 48 50  1  0
 50 51  1  0
 51 52  1  0
 52 53  2  0
 53 54  1  0
 54 55  2  0
 55 56  1  0
 56 57  2  0
 46 58  1  0
 58 59  2  0
 16 11  1  0
 27 22  1  0
 39 32  1  0
 59 43  1  0
 39 35  1  0
 57 52  1  0
M  END
>  <Title>  (107) 
idAAECgen4

$$$$

     RDKit          2D

 71 77  0  0  0  0  0  0  0  0999 V2000
   -3.4140    6.0616    0.0000 C   0  0  0  0  0  0  0  0  0  0  0  0
   -3.4140    4.5616    0.0000 C   0  0  0  0  0  0  0  0  0  0  0  0
   -3.4140    3.0616    0.0000 C   0  0  0  0  0  0  0  0  0  0  0  0
   -4.9140    4.5616    0.0000 C   0  0  0  0  0  0  0  0  0  0  0  0
   -1.9140    4.5616    0.0000 N   0  0  0  0  0  0  0  0  0  0  0  0
   -1.1640    3.2626    0.0000 C   0  0  0  0  0  0  0  0  0  0  0  0
   -1.9140    1.9635    0.0000 O   0  0  0  0  0  0  0  0  0  0  0  0
    0.3360    3.2626    0.0000 C   0  0  0  0  0  0  0  0  0  0  0  0
    1.0860    1.9635    0.0000 C   0  0  0  0  0  0  0  0  0  0  0  0
    0.3360    0.6645    0.0000 C   0  0  0  0  0  0  0  0  0  0  0  0
   -1.1640    0.6645    0.0000 C   0  0  0  0  0  0  0  0  0  0  0  0
   -1.9140   -0.6346    0.0000 C   0  0  0  0  0  0  0  0  0  0  0  0
   -1.1640   -1.9336    0.0000 C   0  0  0  0  0  0  0  0  0  0  0  0
    0.3360   -1.9336    0.0000 C   0  0  0  0  0  0  0  0  0  0  0  0
    1.0860   -0.6346    0.0000 C   0  0  0  0  0  0  0  0  0  0  0  0
    1.0860    4.5616    0.0000 N   0  0  0  0  0  0  0  0  0  0  0  0
    0.3360    5.8606    0.0000 C   0  0  0  0  0  0  0  0  0  0  0  0
   -1.1640    5.8606    0.0000 O   0  0  0  0  0  0  0  0  0  0  0  0
    1.0860    7.1597    0.0000 C   0  0  0  0  0  0  0  0  0  0  0  0
    2.5860    7.1597    0.0000 C   0  0  0  0  0  0  0  0  0  0  0  0
    3.3360    5.8606    0.0000 C   0  0  0  0  0  0  0  0  0  0  0  0
    2.5860    4.5616    0.0000 C   0  0  0  0  0  0  0  0  0  0  0  0
    3.3360    3.2626    0.0000 C   0  0  0  0  0  0  0  0  0  0  0  0
    4.8360    3.2626    0.0000 C   0  0  0  0  0  0  0  0  0  0  0  0
    5.5860    4.5616    0.0000 C   0  0  0  0  0  0  0  0  0  0  0  0
    4.8360    5.8606    0.0000 C   0  0  0  0  0  0  0  0  0  0  0  0
    0.3360    8.4587    0.0000 N   0  0  0  0  0  0  0  0  0  0  0  0
   -1.1640    8.4587    0.0000 C   0  0  0  0  0  0  0  0  0  0  0  0
   -1.9140    7.1597    0.0000 O   0  0  0  0  0  0  0  0  0  0  0  0
   -1.9140    9.7578    0.0000 C   0  0  0  0  0  0  0  0  0  0  0  0
   -1.1640   11.0568    0.0000 C   0  0  0  0  0  0  0  0  0  0  0  0
    0.3360   11.0568    0.0000 C   0  0  0  0  0  0  0  0  0  0  0  0
    1.0860    9.7578    0.0000 C   0  0  0  0  0  0  0  0  0  0  0  0
    2.5860    9.7578    0.0000 C   0  0  0  0  0  0  0  0  0  0  0  0
    3.3360   11.0568    0.0000 C   0  0  0  0  0  0  0  0  0  0  0  0
    2.5860   12.3558    0.0000 C   0  0  0  0  0  0  0  0  0  0  0  0
    1.0860   12.3558    0.0000 C   0  0  0  0  0  0  0  0  0  0  0  0
   -3.4140    9.7578    0.0000 N   0  0  0  0  0  0  0  0  0  0  0  0
   -4.1640    8.4587    0.0000 C   0  0  0  0  0  0  0  0  0  0  0  0
   -3.4140    7.1597    0.0000 O   0  0  0  0  0  0  0  0  0  0  0  0
   -5.6640    8.4587    0.0000 C   0  0  0  0  0  0  0  0  0  0  0  0
   -6.4140    9.7578    0.0000 C   0  0  0  0  0  0  0  0  0  0  0  0
   -5.6640   11.0568    0.0000 C   0  0  0  0  0  0  0  0  0  0  0  0
   -4.1640   11.0568    0.0000 C   0  0  0  0  0  0  0  0  0  0  0  0
   -3.4140   12.3558    0.0000 C   0  0  0  0  0  0  0  0  0  0  0  0
   -4.1640   13.6549    0.0000 C   0  0  0  0  0  0  0  0  0  0  0  0
   -5.6640   13.6549    0.0000 C   0  0  0  0  0  0  0  0  0  0  0  0
   -6.4140   12.3558    0.0000 C   0  0  0  0  0  0  0  0  0  0  0  0
   -6.4140    7.1597    0.0000 N   0  0  0  0  0  0  0  0  0  0  0  0
   -7.9140    7.1597    0.0000 C   0  0  0  0  0  0  0  0  0  0  0  0
   -8.6640    8.4587    0.0000 O   0  0  0  0  0  0  0  0  0  0  0  0
   -8.6640    5.8606    0.0000 C   0  0  0  0  0  0  0  0  0  0  0  0
   -7.9140    4.5616    0.0000 C   0  0  0  0  0  0  0  0  0  0  0  0
   -8.6640    3.2626    0.0000 C   0  0  0  0  0  0  0  0  0  0  0  0
   -7.9140    1.9635    0.0000 C   0  0  0  0  0  0  0  0  0  0  0  0
   -8.6640    0.6645    0.0000 C   0  0  0  0  0  0  0  0  0  0  0  0
  -10.1640    0.6645    0.0000 C   0  0  0  0  0  0  0  0  0  0  0  0
  -10.9140    1.9635    0.0000 C   0  0  0  0  0  0  0  0  0  0  0  0
  -10.1640    3.2626    0.0000 C   0  0  0  0  0  0  0  0  0  0  0  0
  -10.1640    5.8606    0.0000 N   0  0  0  0  0  0  0  0  0  0  0  0
  -10.9140    7.1597    0.0000 C   0  0  0  0  0  0  0  0  0  0  0  0
  -10.1640    8.4587    0.0000 O   0  0  0  0  0  0  0  0  0  0  0  0
  -12.4140    7.1597    0.0000 O   0  0  0  0  0  0  0  0  0  0  0  0
  -13.1640    8.4587    0.0000 C   0  0  0  0  0  0  0  0  0  0  0  0
  -12.5539    9.8290    0.0000 C   0  0  0  0  0  0  0  0  0  0  0  0
  -13.6686   10.8327    0.0000 O   0  0  0  0  0  0  0  0  0  0  0  0
  -14.9676   10.0827    0.0000 C   0  0  0  0  0  0  0  0  0  0  0  0
  -16.4594   10.2395    0.0000 O   0  0  0  0  0  0  0  0  0  0  0  0
  -17.0695    8.8692    0.0000 C   0  0  0  0  0  0  0  0  0  0  0  0
  -15.9548    7.8655    0.0000 C   0  0  0  0  0  0  0  0  0  0  0  0
  -14.6557    8.6155    0.0000 C   0  0  0  0  0  0  0  0  0  0  0  0
  1  2  1  0
  2  3  1  0
  2  4  1  0
  2  5  1  0
  5  6  1  0
  6  7  2  0
  6  8  1  0
  8  9  1  0
  9 10  1  0
 10 11  2  0
 11 12  1  0
 12 13  2  0
 13 14  1  0
 14 15  2  0
  8 16  1  0
 16 17  1  0
 17 18  2  0
 17 19  1  0
 19 20  1  0
 20 21  1  0
 21 22  2  0
 22 23  1  0
 23 24  2  0
 24 25  1  0
 25 26  2  0
 19 27  1  0
 27 28  1  0
 28 29  2  0
 28 30  1  0
 30 31  1  0
 31 32  1  0
 32 33  2  0
 33 34  1  0
 34 35  2  0
 35 36  1  0
 36 37  2  0
 30 38  1  0
 38 39  1  0
 39 40  2  0
 39 41  1  0
 41 42  1  0
 42 43  1  0
 43 44  2  0
 44 45  1  0
 45 46  2  0
 46 47  1  0
 47 48  2  0
 41 49  1  0
 49 50  1  0
 50 51  2  0
 50 52  1  0
 52 53  1  0
 53 54  1  0
 54 55  2  0
 55 56  1  0
 56 57  2  0
 57 58  1  0
 58 59  2  0
 52 60  1  0
 60 61  1  0
 61 62  2  0
 61 63  1  0
 63 64  1  0
 64 65  1  0
 65 66  1  0
 66 67  1  0
 67 68  1  0
 68 69  1  0
 69 70  1  0
 70 71  1  0
 15 10  1  0
 26 21  1  0
 37 32  1  0
 48 43  1  0
 59 54  1  0
 71 64  1  0
 71 67  1  0
M  END
>  <Title>  (108) 
idAAEDgen4

$$$$

     RDKit          2D

 37 40  0  0  0  0  0  0  0  0999 V2000
   -6.4140   12.3558    0.0000 C   0  0  0  0  0  0  0  0  0  0  0  0
   -5.6640   11.0568    0.0000 C   0  0  0  0  0  0  0  0  0  0  0  0
   -4.1640   11.0568    0.0000 C   0  0  0  0  0  0  0  0  0  0  0  0
   -6.4140    9.7578    0.0000 C   0  0  0  0  0  0  0  0  0  0  0  0
   -5.6640    8.4587    0.0000 N   0  0  0  0  0  0  0  0  0  0  0  0
   -6.4140    7.1597    0.0000 C   0  0  0  0  0  0  0  0  0  0  0  0
   -5.6640    5.8606    0.0000 C   0  0  0  0  0  0  0  0  0  0  0  0
   -4.1640    5.8606    0.0000 O   0  0  0  0  0  0  0  0  0  0  0  0
   -6.4140    4.5616    0.0000 C   0  0  0  0  0  0  0  0  0  0  0  0
   -7.9140    4.5616    0.0000 C   0  0  0  0  0  0  0  0  0  0  0  0
   -8.6640    5.8606    0.0000 C   0  0  0  0  0  0  0  0  0  0  0  0
   -7.9140    7.1597    0.0000 C   0  0  0  0  0  0  0  0  0  0  0  0
   -8.6640    8.4587    0.0000 C   0  0  0  0  0  0  0  0  0  0  0  0
  -10.1640    8.4587    0.0000 C   0  0  0  0  0  0  0  0  0  0  0  0
  -10.9140    7.1597    0.0000 C   0  0  0  0  0  0  0  0  0  0  0  0
  -10.1640    5.8606    0.0000 C   0  0  0  0  0  0  0  0  0  0  0  0
   -5.6640    3.2626    0.0000 N   0  0  0  0  0  0  0  0  0  0  0  0
   -4.1640    3.2626    0.0000 C   0  0  0  0  0  0  0  0  0  0  0  0
   -3.4140    4.5616    0.0000 O   0  0  0  0  0  0  0  0  0  0  0  0
   -3.4140    1.9635    0.0000 O   0  0  0  0  0  0  0  0  0  0  0  0
   -1.9140    1.9635    0.0000 C   0  0  0  0  0  0  0  0  0  0  0  0
   -1.0323    3.1771    0.0000 C   0  0  0  0  0  0  0  0  0  0  0  0
    0.3943    2.7135    0.0000 O   0  0  0  0  0  0  0  0  0  0  0  0
    0.3943    1.2135    0.0000 C   0  0  0  0  0  0  0  0  0  0  0  0
    1.2760    0.0000    0.0000 O   0  0  0  0  0  0  0  0  0  0  0  0
    0.3943   -1.2135    0.0000 C   0  0  0  0  0  0  0  0  0  0  0  0
   -1.0323   -0.7500    0.0000 C   0  0  0  0  0  0  0  0  0  0  0  0
   -1.0323    0.7500    0.0000 C   0  0  0  0  0  0  0  0  0  0  0  0
   -4.1640    8.4587    0.0000 S   0  0  0  0  0  0  0  0  0  0  0  0
   -4.1640    6.9587    0.0000 O   0  0  0  0  0  0  0  0  0  0  0  0
   -4.1640    9.9587    0.0000 O   0  0  0  0  0  0  0  0  0  0  0  0
   -2.6640    8.4587    0.0000 C   0  0  0  0  0  0  0  0  0  0  0  0
   -1.9140    7.1597    0.0000 C   0  0  0  0  0  0  0  0  0  0  0  0
   -0.4140    7.1597    0.0000 C   0  0  0  0  0  0  0  0  0  0  0  0
    0.3360    8.4587    0.0000 C   0  0  0  0  0  0  0  0  0  0  0  0
   -0.4140    9.7578    0.0000 C   0  0  0  0  0  0  0  0  0  0  0  0
   -1.9140    9.7578    0.0000 C   0  0  0  0  0  0  0  0  0  0  0  0
  1  2  1  0
  2  3  1  0
  2  4  1  0
  4  5  1  0
  5  6  1  0
  6  7  1  0
  7  8  1  0
  7  9  1  0
  9 10  1  0
 10 11  1  0
 11 12  2  0
 12 13  1  0
 13 14  2  0
 14 15  1  0
 15 16  2  0
  9 17  1  0
 17 18  1  0
 18 19  2  0
 18 20  1  0
 20 21  1  0
 21 22  1  0
 22 23  1  0
 23 24  1  0
 24 25  1  0
 25 26  1  0
 26 27  1  0
 27 28  1  0
  5 29  1  0
 29 30  2  0
 29 31  2  0
 29 32  1  0
 32 33  2  0
 33 34  1  0
 34 35  2  0
 35 36  1  0
 36 37  2  0
 16 11  1  0
 28 21  1  0
 37 32  1  0
 28 24  1  0
M  END
>  <Title>  (109) 
idAAEEgen4

$$$$

     RDKit          2D

 20 22  0  0  0  0  0  0  0  0999 V2000
    2.6491    0.9642    0.0000 C   0  0  0  0  0  0  0  0  0  0  0  0
    1.5000    0.0000    0.0000 C   0  0  0  0  0  0  0  0  0  0  0  0
    2.6491   -0.9642    0.0000 O   0  0  0  0  0  0  0  0  0  0  0  0
    0.7500   -1.2990    0.0000 C   0  0  0  0  0  0  0  0  0  0  0  0
   -0.7500   -1.2990    0.0000 C   0  0  0  0  0  0  0  0  0  0  0  0
   -1.5000    0.0000    0.0000 C   0  0  0  0  0  0  0  0  0  0  0  0
   -0.7500    1.2990    0.0000 C   0  0  0  0  0  0  0  0  0  0  0  0
   -2.2500    1.2990    0.0000 C   0  0  0  0  0  0  0  0  0  0  0  0
   -1.5000    2.5981    0.0000 C   0  0  0  0  0  0  0  0  0  0  0  0
   -3.0000    2.5981    0.0000 C   0  0  0  0  0  0  0  0  0  0  0  0
   -3.7500    3.8971    0.0000 C   0  0  0  0  0  0  0  0  0  0  0  0
   -5.2500    3.8971    0.0000 C   0  0  0  0  0  0  0  0  0  0  0  0
   -6.1317    2.6836    0.0000 C   0  0  0  0  0  0  0  0  0  0  0  0
   -7.5583    3.1471    0.0000 C   0  0  0  0  0  0  0  0  0  0  0  0
   -7.5583    4.6471    0.0000 C   0  0  0  0  0  0  0  0  0  0  0  0
   -6.1317    5.1106    0.0000 C   0  0  0  0  0  0  0  0  0  0  0  0
   -0.7500    3.8971    0.0000 C   0  0  0  0  0  0  0  0  0  0  0  0
    0.7500    3.8971    0.0000 C   0  0  0  0  0  0  0  0  0  0  0  0
    1.5000    2.5981    0.0000 C   0  0  0  0  0  0  0  0  0  0  0  0
    0.7500    1.2990    0.0000 C   0  0  0  0  0  0  0  0  0  0  0  0
  1  2  1  0
  2  3  1  0
  2  4  1  0
  4  5  1  0
  5  6  1  0
  6  7  1  0
  7  8  1  0
  7  9  1  0
  9 10  1  0
 10 11  1  0
 11 12  1  0
 12 13  1  0
 13 14  1  0
 14 15  1  0
 15 16  1  0
  9 17  1  0
 17 18  1  0
 18 19  1  0
 19 20  1  0
 20  2  1  0
 20  7  1  0
 16 12  1  0
M  END
>  <Title>  (110) 
idAAEFgen4

$$$$

     RDKit          2D

 73 80  0  0  0  0  0  0  0  0999 V2000
    5.4236    1.0416    0.0000 C   0  0  0  0  0  0  0  0  0  0  0  0
    3.9564    1.3534    0.0000 C   0  0  0  0  0  0  0  0  0  0  0  0
    4.6718    2.4982    0.0000 C   0  0  0  0  0  0  0  0  0  0  0  0
    3.7996   -0.1384    0.0000 C   0  0  0  0  0  0  0  0  0  0  0  0
    2.3323   -0.4502    0.0000 C   0  0  0  0  0  0  0  0  0  0  0  0
    1.5823    0.8488    0.0000 C   0  0  0  0  0  0  0  0  0  0  0  0
    2.5860    1.9635    0.0000 C   0  0  0  0  0  0  0  0  0  0  0  0
    1.3725    2.8452    0.0000 C   0  0  0  0  0  0  0  0  0  0  0  0
    3.3360    3.2626    0.0000 C   0  0  0  0  0  0  0  0  0  0  0  0
    4.8360    3.2626    0.0000 C   0  0  0  0  0  0  0  0  0  0  0  0
    5.5860    1.9635    0.0000 C   0  0  0  0  0  0  0  0  0  0  0  0
    7.0860    1.9635    0.0000 C   0  0  0  0  0  0  0  0  0  0  0  0
    7.8360    3.2626    0.0000 C   0  0  0  0  0  0  0  0  0  0  0  0
    7.0860    4.5616    0.0000 C   0  0  0  0  0  0  0  0  0  0  0  0
    5.5860    4.5616    0.0000 C   0  0  0  0  0  0  0  0  0  0  0  0
    4.8360    5.8606    0.0000 C   0  0  0  0  0  0  0  0  0  0  0  0
    3.3360    5.8606    0.0000 C   0  0  0  0  0  0  0  0  0  0  0  0
    2.5860    7.1597    0.0000 C   0  0  0  0  0  0  0  0  0  0  0  0
    1.0860    7.1597    0.0000 C   0  0  0  0  0  0  0  0  0  0  0  0
    0.3360    8.4587    0.0000 N   0  0  0  0  0  0  0  0  0  0  0  0
   -1.1640    8.4587    0.0000 C   0  0  0  0  0  0  0  0  0  0  0  0
   -1.9140    7.1597    0.0000 O   0  0  0  0  0  0  0  0  0  0  0  0
   -1.9140    9.7578    0.0000 C   0  0  0  0  0  0  0  0  0  0  0  0
   -1.1640   11.0568    0.0000 C   0  0  0  0  0  0  0  0  0  0  0  0
    0.3360   11.0568    0.0000 C   0  0  0  0  0  0  0  0  0  0  0  0
    1.0860    9.7578    0.0000 C   0  0  0  0  0  0  0  0  0  0  0  0
    2.5860    9.7578    0.0000 C   0  0  0  0  0  0  0  0  0  0  0  0
    3.3360   11.0568    0.0000 C   0  0  0  0  0  0  0  0  0  0  0  0
    2.5860   12.3558    0.0000 C   0  0  0  0  0  0  0  0  0  0  0  0
    1.0860   12.3558    0.0000 C   0  0  0  0  0  0  0  0  0  0  0  0
   -3.4140    9.7578    0.0000 N   0  0  0  0  0  0  0  0  0  0  0  0
   -4.1640    8.4587    0.0000 C   0  0  0  0  0  0  0  0  0  0  0  0
   -3.4140    7.1597    0.0000 O   0  0  0  0  0  0  0  0  0  0  0  0
   -5.6640    8.4587    0.0000 C   0  0  0  0  0  0  0  0  0  0  0  0
   -6.4140    9.7578    0.0000 C   0  0  0  0  0  0  0  0  0  0  0  0
   -5.6640   11.0568    0.0000 C   0  0  0  0  0  0  0  0  0  0  0  0
   -4.1640   11.0568    0.0000 C   0  0  0  0  0  0  0  0  0  0  0  0
   -3.4140   12.3558    0.0000 C   0  0  0  0  0  0  0  0  0  0  0  0
   -4.1640   13.6549    0.0000 C   0  0  0  0  0  0  0  0  0  0  0  0
   -5.6640   13.6549    0.0000 C   0  0  0  0  0  0  0  0  0  0  0  0
   -6.4140   12.3558    0.0000 C   0  0  0  0  0  0  0  0  0  0  0  0
   -6.4140    7.1597    0.0000 N   0  0  0  0  0  0  0  0  0  0  0  0
   -5.6640    5.8606    0.0000 C   0  0  0  0  0  0  0  0  0  0  0  0
   -4.1640    5.8606    0.0000 O   0  0  0  0  0  0  0  0  0  0  0  0
   -6.4140    4.5616    0.0000 C   0  0  0  0  0  0  0  0  0  0  0  0
   -7.9140    4.5616    0.0000 C   0  0  0  0  0  0  0  0  0  0  0  0
   -8.6640    5.8606    0.0000 C   0  0  0  0  0  0  0  0  0  0  0  0
   -7.9140    7.1597    0.0000 C   0  0  0  0  0  0  0  0  0  0  0  0
   -8.6640    8.4587    0.0000 C   0  0  0  0  0  0  0  0  0  0  0  0
  -10.1640    8.4587    0.0000 C   0  0  0  0  0  0  0  0  0  0  0  0
  -10.9140    7.1597    0.0000 C   0  0  0  0  0  0  0  0  0  0  0  0
  -10.1640    5.8606    0.0000 C   0  0  0  0  0  0  0  0  0  0  0  0
   -5.6640    3.2626    0.0000 N   0  0  0  0  0  0  0  0  0  0  0  0
   -4.1640    3.2626    0.0000 C   0  0  0  0  0  0  0  0  0  0  0  0
   -3.4140    4.5616    0.0000 O   0  0  0  0  0  0  0  0  0  0  0  0
   -3.4140    1.9635    0.0000 O   0  0  0  0  0  0  0  0  0  0  0  0
   -1.9140    1.9635    0.0000 C   0  0  0  0  0  0  0  0  0  0  0  0
   -1.0323    3.1771    0.0000 C   0  0  0  0  0  0  0  0  0  0  0  0
    0.3943    2.7135    0.0000 O   0  0  0  0  0  0  0  0  0  0  0  0
    0.3943    1.2135    0.0000 C   0  0  0  0  0  0  0  0  0  0  0  0
    1.2760    0.0000    0.0000 O   0  0  0  0  0  0  0  0  0  0  0  0
    0.3943   -1.2135    0.0000 C   0  0  0  0  0  0  0  0  0  0  0  0
   -1.0323   -0.7500    0.0000 C   0  0  0  0  0  0  0  0  0  0  0  0
   -1.0323    0.7500    0.0000 C   0  0  0  0  0  0  0  0  0  0  0  0
    0.3360    5.8606    0.0000 S   0  0  0  0  0  0  0  0  0  0  0  0
   -0.9630    6.6106    0.0000 O   0  0  0  0  0  0  0  0  0  0  0  0
    1.6351    5.1106    0.0000 O   0  0  0  0  0  0  0  0  0  0  0  0
   -0.4140    4.5616    0.0000 C   0  0  0  0  0  0  0  0  0  0  0  0
   -1.9140    4.5616    0.0000 C   0  0  0  0  0  0  0  0  0  0  0  0
   -2.6640    3.2626    0.0000 C   0  0  0  0  0  0  0  0  0  0  0  0
   -1.9140    1.9635    0.0000 C   0  0  0  0  0  0  0  0  0  0  0  0
   -0.4140    1.9635    0.0000 C   0  0  0  0  0  0  0  0  0  0  0  0
    0.3360    3.2626    0.0000 C   0  0  0  0  0  0  0  0  0  0  0  0
  1  2  1  0
  2  3  1  0
  2  4  1  0
  4  5  1  0
  5  6  1  0
  6  7  1  0
  7  8  1  0
  7  9  1  0
  9 10  1  0
 10 11  1  0
 11 12  1  0
 12 13  1  0
 13 14  1  0
 14 15  1  0
 15 16  1  0
 16 17  1  0
 17 18  1  0
 18 19  1  0
 19 20  1  0
 20 21  1  0
 21 22  2  0
 21 23  1  0
 23 24  1  0
 24 25  1  0
 25 26  2  0
 26 27  1  0
 27 28  2  0
 28 29  1  0
 29 30  2  0
 23 31  1  0
 31 32  1  0
 32 33  2  0
 32 34  1  0
 34 35  1  0
 35 36  1  0
 36 37  2  0
 37 38  1  0
 38 39  2  0
 39 40  1  0
 40 41  2  0
 34 42  1  0
 42 43  1  0
 43 44  2  0
 43 45  1  0
 45 46  1  0
 46 47  1  0
 47 48  2  0
 48 49  1  0
 49 50  2  0
 50 51  1  0
 51 52  2  0
 45 53  1  0
 53 54  1  0
 54 55  2  0
 54 56  1  0
 56 57  1  0
 57 58  1  0
 58 59  1  0
 59 60  1  0
 60 61  1  0
 61 62  1  0
 62 63  1  0
 63 64  1  0
 19 65  1  0
 65 66  2  0
 65 67  2  0
 65 68  1  0
 68 69  2  0
 69 70  1  0
 70 71  2  0
 71 72  1  0
 72 73  2  0
  7  2  1  0
 15 10  1  0
 30 25  1  0
 41 36  1  0
 52 47  1  0
 64 57  1  0
 73 68  1  0
 64 60  1  0
M  END
>  <Title>  (111) 
idAAEGgen4

$$$$

     RDKit          2D

 58 63  0  0  0  0  0  0  0  0999 V2000
    1.0860   12.3558    0.0000 C   0  0  0  0  0  0  0  0  0  0  0  0
    0.3360   11.0568    0.0000 C   0  0  0  0  0  0  0  0  0  0  0  0
    1.0860    9.7578    0.0000 C   0  0  0  0  0  0  0  0  0  0  0  0
   -1.1640   11.0568    0.0000 C   0  0  0  0  0  0  0  0  0  0  0  0
   -1.9140    9.7578    0.0000 N   0  0  0  0  0  0  0  0  0  0  0  0
   -3.4140    9.7578    0.0000 C   0  0  0  0  0  0  0  0  0  0  0  0
   -4.1640    8.4587    0.0000 C   0  0  0  0  0  0  0  0  0  0  0  0
   -3.4140    7.1597    0.0000 O   0  0  0  0  0  0  0  0  0  0  0  0
   -5.6640    8.4587    0.0000 C   0  0  0  0  0  0  0  0  0  0  0  0
   -6.4140    9.7578    0.0000 C   0  0  0  0  0  0  0  0  0  0  0  0
   -5.6640   11.0568    0.0000 C   0  0  0  0  0  0  0  0  0  0  0  0
   -4.1640   11.0568    0.0000 C   0  0  0  0  0  0  0  0  0  0  0  0
   -3.4140   12.3558    0.0000 C   0  0  0  0  0  0  0  0  0  0  0  0
   -4.1640   13.6549    0.0000 C   0  0  0  0  0  0  0  0  0  0  0  0
   -5.6640   13.6549    0.0000 C   0  0  0  0  0  0  0  0  0  0  0  0
   -6.4140   12.3558    0.0000 C   0  0  0  0  0  0  0  0  0  0  0  0
   -6.4140    7.1597    0.0000 N   0  0  0  0  0  0  0  0  0  0  0  0
   -5.6640    5.8606    0.0000 C   0  0  0  0  0  0  0  0  0  0  0  0
   -4.1640    5.8606    0.0000 O   0  0  0  0  0  0  0  0  0  0  0  0
   -6.4140    4.5616    0.0000 C   0  0  0  0  0  0  0  0  0  0  0  0
   -7.9140    4.5616    0.0000 C   0  0  0  0  0  0  0  0  0  0  0  0
   -8.6640    5.8606    0.0000 C   0  0  0  0  0  0  0  0  0  0  0  0
   -7.9140    7.1597    0.0000 C   0  0  0  0  0  0  0  0  0  0  0  0
   -8.6640    8.4587    0.0000 C   0  0  0  0  0  0  0  0  0  0  0  0
  -10.1640    8.4587    0.0000 C   0  0  0  0  0  0  0  0  0  0  0  0
  -10.9140    7.1597    0.0000 C   0  0  0  0  0  0  0  0  0  0  0  0
  -10.1640    5.8606    0.0000 C   0  0  0  0  0  0  0  0  0  0  0  0
   -5.6640    3.2626    0.0000 N   0  0  0  0  0  0  0  0  0  0  0  0
   -4.1640    3.2626    0.0000 C   0  0  0  0  0  0  0  0  0  0  0  0
   -3.4140    4.5616    0.0000 O   0  0  0  0  0  0  0  0  0  0  0  0
   -3.4140    1.9635    0.0000 O   0  0  0  0  0  0  0  0  0  0  0  0
   -1.9140    1.9635    0.0000 C   0  0  0  0  0  0  0  0  0  0  0  0
   -1.0323    3.1771    0.0000 C   0  0  0  0  0  0  0  0  0  0  0  0
    0.3943    2.7135    0.0000 O   0  0  0  0  0  0  0  0  0  0  0  0
    0.3943    1.2135    0.0000 C   0  0  0  0  0  0  0  0  0  0  0  0
    1.2760    0.0000    0.0000 O   0  0  0  0  0  0  0  0  0  0  0  0
    0.3943   -1.2135    0.0000 C   0  0  0  0  0  0  0  0  0  0  0  0
   -1.0323   -0.7500    0.0000 C   0  0  0  0  0  0  0  0  0  0  0  0
   -1.0323    0.7500    0.0000 C   0  0  0  0  0  0  0  0  0  0  0  0
   -1.1640    8.4587    0.0000 S   0  0  0  0  0  0  0  0  0  0  0  0
   -2.4630    7.7087    0.0000 O   0  0  0  0  0  0  0  0  0  0  0  0
    0.1351    9.2087    0.0000 O   0  0  0  0  0  0  0  0  0  0  0  0
   -0.4140    7.1597    0.0000 C   0  0  0  0  0  0  0  0  0  0  0  0
   -1.1640    5.8606    0.0000 C   0  0  0  0  0  0  0  0  0  0  0  0
   -0.4140    4.5616    0.0000 C   0  0  0  0  0  0  0  0  0  0  0  0
    1.0860    4.5616    0.0000 C   0  0  0  0  0  0  0  0  0  0  0  0
    1.8360    3.2626    0.0000 N   0  0  0  0  0  0  0  0  0  0  0  0
    3.3360    3.2626    0.0000 C   0  0  0  0  0  0  0  0  0  0  0  0
    4.0860    4.5616    0.0000 O   0  0  0  0  0  0  0  0  0  0  0  0
    4.0860    1.9635    0.0000 C   0  0  0  0  0  0  0  0  0  0  0  0
    5.5860    1.9635    0.0000 C   0  0  0  0  0  0  0  0  0  0  0  0
    6.3360    0.6645    0.0000 C   0  0  0  0  0  0  0  0  0  0  0  0
    7.8360    0.6645    0.0000 C   0  0  0  0  0  0  0  0  0  0  0  0
    8.5860    1.9635    0.0000 C   0  0  0  0  0  0  0  0  0  0  0  0
    7.8360    3.2626    0.0000 C   0  0  0  0  0  0  0  0  0  0  0  0
    6.3360    3.2626    0.0000 C   0  0  0  0  0  0  0  0  0  0  0  0
    1.8360    5.8606    0.0000 C   0  0  0  0  0  0  0  0  0  0  0  0
    1.0860    7.1597    0.0000 C   0  0  0  0  0  0  0  0  0  0  0  0
  1  2  1  0
  2  3  1  0
  2  4  1  0
  4  5  1  0
  5  6  1  0
  6  7  1  0
  7  8  1  0
  7  9  1  0
  9 10  1  0
 10 11  1  0
 11 12  2  0
 12 13  1  0
 13 14  2  0
 14 15  1  0
 15 16  2  0
  9 17  1  0
 17 18  1  0
 18 19  2  0
 18 20  1  0
 20 21  1  0
 21 22  1  0
 22 23  2  0
 23 24  1  0
 24 25  2  0
 25 26  1  0
 26 27  2  0
 20 28  1  0
 28 29  1  0
 29 30  2  0
 29 31  1  0
 31 32  1  0
 32 33  1  0
 33 34  1  0
 34 35  1  0
 35 36  1  0
 36 37  1  0
 37 38  1  0
 38 39  1  0
  5 40  1  0
 40 41  2  0
 40 42  2  0
 40 43  1  0
 43 44  2  0
 44 45  1  0
 45 46  2  0
 46 47  1  0
 47 48  1  0
 48 49  2  0
 48 50  1  0
 50 51  1  0
 51 52  2  0
 52 53  1  0
 53 54  2  0
 54 55  1  0
 55 56  2  0
 46 57  1  0
 57 58  2  0
 16 11  1  0
 27 22  1  0
 39 32  1  0
 58 43  1  0
 39 35  1  0
 56 51  1  0
M  END
>  <Title>  (112) 
idAAEHgen4

$$$$

     RDKit          2D

 67 73  0  0  0  0  0  0  0  0999 V2000
    1.0860   12.3558    0.0000 C   0  0  0  0  0  0  0  0  0  0  0  0
    0.3360   11.0568    0.0000 C   0  0  0  0  0  0  0  0  0  0  0  0
    1.0860    9.7578    0.0000 C   0  0  0  0  0  0  0  0  0  0  0  0
   -1.1640   11.0568    0.0000 C   0  0  0  0  0  0  0  0  0  0  0  0
   -1.9140    9.7578    0.0000 N   0  0  0  0  0  0  0  0  0  0  0  0
   -3.4140    9.7578    0.0000 C   0  0  0  0  0  0  0  0  0  0  0  0
   -4.1640    8.4587    0.0000 C   0  0  0  0  0  0  0  0  0  0  0  0
   -3.4140    7.1597    0.0000 O   0  0  0  0  0  0  0  0  0  0  0  0
   -5.6640    8.4587    0.0000 C   0  0  0  0  0  0  0  0  0  0  0  0
   -6.4140    9.7578    0.0000 C   0  0  0  0  0  0  0  0  0  0  0  0
   -5.6640   11.0568    0.0000 C   0  0  0  0  0  0  0  0  0  0  0  0
   -4.1640   11.0568    0.0000 C   0  0  0  0  0  0  0  0  0  0  0  0
   -3.4140   12.3558    0.0000 C   0  0  0  0  0  0  0  0  0  0  0  0
   -4.1640   13.6549    0.0000 C   0  0  0  0  0  0  0  0  0  0  0  0
   -5.6640   13.6549    0.0000 C   0  0  0  0  0  0  0  0  0  0  0  0
   -6.4140   12.3558    0.0000 C   0  0  0  0  0  0  0  0  0  0  0  0
   -6.4140    7.1597    0.0000 N   0  0  0  0  0  0  0  0  0  0  0  0
   -5.6640    5.8606    0.0000 C   0  0  0  0  0  0  0  0  0  0  0  0
   -4.1640    5.8606    0.0000 O   0  0  0  0  0  0  0  0  0  0  0  0
   -6.4140    4.5616    0.0000 C   0  0  0  0  0  0  0  0  0  0  0  0
   -7.9140    4.5616    0.0000 C   0  0  0  0  0  0  0  0  0  0  0  0
   -8.6640    5.8606    0.0000 C   0  0  0  0  0  0  0  0  0  0  0  0
   -7.9140    7.1597    0.0000 C   0  0  0  0  0  0  0  0  0  0  0  0
   -8.6640    8.4587    0.0000 C   0  0  0  0  0  0  0  0  0  0  0  0
  -10.1640    8.4587    0.0000 C   0  0  0  0  0  0  0  0  0  0  0  0
  -10.9140    7.1597    0.0000 C   0  0  0  0  0  0  0  0  0  0  0  0
  -10.1640    5.8606    0.0000 C   0  0  0  0  0  0  0  0  0  0  0  0
   -5.6640    3.2626    0.0000 N   0  0  0  0  0  0  0  0  0  0  0  0
   -4.1640    3.2626    0.0000 C   0  0  0  0  0  0  0  0  0  0  0  0
   -3.4140    4.5616    0.0000 O   0  0  0  0  0  0  0  0  0  0  0  0
   -3.4140    1.9635    0.0000 O   0  0  0  0  0  0  0  0  0  0  0  0
   -1.9140    1.9635    0.0000 C   0  0  0  0  0  0  0  0  0  0  0  0
   -1.0323    3.1771    0.0000 C   0  0  0  0  0  0  0  0  0  0  0  0
    0.3943    2.7135    0.0000 O   0  0  0  0  0  0  0  0  0  0  0  0
    0.3943    1.2135    0.0000 C   0  0  0  0  0  0  0  0  0  0  0  0
    1.2760    0.0000    0.0000 O   0  0  0  0  0  0  0  0  0  0  0  0
    0.3943   -1.2135    0.0000 C   0  0  0  0  0  0  0  0  0  0  0  0
   -1.0323   -0.7500    0.0000 C   0  0  0  0  0  0  0  0  0  0  0  0
   -1.0323    0.7500    0.0000 C   0  0  0  0  0  0  0  0  0  0  0  0
   -1.1640    8.4587    0.0000 S   0  0  0  0  0  0  0  0  0  0  0  0
   -2.4630    7.7087    0.0000 O   0  0  0  0  0  0  0  0  0  0  0  0
    0.1351    9.2087    0.0000 O   0  0  0  0  0  0  0  0  0  0  0  0
   -0.4140    7.1597    0.0000 C   0  0  0  0  0  0  0  0  0  0  0  0
   -1.1640    5.8606    0.0000 C   0  0  0  0  0  0  0  0  0  0  0  0
   -0.4140    4.5616    0.0000 C   0  0  0  0  0  0  0  0  0  0  0  0
    1.0860    4.5616    0.0000 C   0  0  0  0  0  0  0  0  0  0  0  0
    1.8360    3.2626    0.0000 N   0  0  0  0  0  0  0  0  0  0  0  0
    3.3360    3.2626    0.0000 C   0  0  0  0  0  0  0  0  0  0  0  0
    4.0860    4.5616    0.0000 O   0  0  0  0  0  0  0  0  0  0  0  0
    4.0860    1.9635    0.0000 C   0  0  0  0  0  0  0  0  0  0  0  0
    3.3360    0.6645    0.0000 C   0  0  0  0  0  0  0  0  0  0  0  0
    4.0860   -0.6346    0.0000 C   0  0  0  0  0  0  0  0  0  0  0  0
    5.5860   -0.6346    0.0000 C   0  0  0  0  0  0  0  0  0  0  0  0
    6.3360   -1.9336    0.0000 C   0  0  0  0  0  0  0  0  0  0  0  0
    5.5860   -3.2326    0.0000 C   0  0  0  0  0  0  0  0  0  0  0  0
    4.0860   -3.2326    0.0000 C   0  0  0  0  0  0  0  0  0  0  0  0
    3.3360   -1.9336    0.0000 C   0  0  0  0  0  0  0  0  0  0  0  0
    5.5860    1.9635    0.0000 C   0  0  0  0  0  0  0  0  0  0  0  0
    6.3360    0.6645    0.0000 O   0  0  0  0  0  0  0  0  0  0  0  0
    6.3360    3.2626    0.0000 C   0  0  0  0  0  0  0  0  0  0  0  0
    7.8360    3.2626    0.0000 C   0  0  0  0  0  0  0  0  0  0  0  0
    8.5860    4.5616    0.0000 C   0  0  0  0  0  0  0  0  0  0  0  0
    7.8360    5.8606    0.0000 C   0  0  0  0  0  0  0  0  0  0  0  0
    6.3360    5.8606    0.0000 C   0  0  0  0  0  0  0  0  0  0  0  0
    5.5860    4.5616    0.0000 C   0  0  0  0  0  0  0  0  0  0  0  0
    1.8360    5.8606    0.0000 C   0  0  0  0  0  0  0  0  0  0  0  0
    1.0860    7.1597    0.0000 C   0  0  0  0  0  0  0  0  0  0  0  0
  1  2  1  0
  2  3  1  0
  2  4  1  0
  4  5  1  0
  5  6  1  0
  6  7  1  0
  7  8  1  0
  7  9  1  0
  9 10  1  0
 10 11  1  0
 11 12  2  0
 12 13  1  0
 13 14  2  0
 14 15  1  0
 15 16  2  0
  9 17  1  0
 17 18  1  0
 18 19  2  0
 18 20  1  0
 20 21  1  0
 21 22  1  0
 22 23  2  0
 23 24  1  0
 24 25  2  0
 25 26  1  0
 26 27  2  0
 20 28  1  0
 28 29  1  0
 29 30  2  0
 29 31  1  0
 31 32  1  0
 32 33  1  0
 33 34  1  0
 34 35  1  0
 35 36  1  0
 36 37  1  0
 37 38  1  0
 38 39  1  0
  5 40  1  0
 40 41  2  0
 40 42  2  0
 40 43  1  0
 43 44  2  0
 44 45  1  0
 45 46  2  0
 46 47  1  0
 47 48  1  0
 48 49  2  0
 48 50  1  0
 50 51  1  0
 51 52  1  0
 52 53  2  0
 53 54  1  0
 54 55  2  0
 55 56  1  0
 56 57  2  0
 50 58  1  0
 58 59  2  0
 58 60  1  0
 60 61  1  0
 61 62  1  0
 62 63  1  0
 63 64  1  0
 64 65  1  0
 46 66  1  0
 66 67  2  0
 16 11  1  0
 27 22  1  0
 39 32  1  0
 67 43  1  0
 39 35  1  0
 57 52  1  0
 65 60  1  0
M  END
>  <Title>  (113) 
idAAEIgen4

$$$$

     RDKit          2D

 48 51  0  0  0  0  0  0  0  0999 V2000
   -5.3849    0.4488    0.0000 C   0  0  0  0  0  0  0  0  0  0  0  0
   -3.9583   -0.0147    0.0000 C   0  0  0  0  0  0  0  0  0  0  0  0
   -2.5317   -0.4783    0.0000 C   0  0  0  0  0  0  0  0  0  0  0  0
   -3.4948    1.4118    0.0000 C   0  0  0  0  0  0  0  0  0  0  0  0
   -4.4218   -1.4413    0.0000 N   0  0  0  0  0  0  0  0  0  0  0  0
   -3.4182   -2.5560    0.0000 C   0  0  0  0  0  0  0  0  0  0  0  0
   -1.9509   -2.2442    0.0000 O   0  0  0  0  0  0  0  0  0  0  0  0
   -3.8817   -3.9826    0.0000 C   0  0  0  0  0  0  0  0  0  0  0  0
   -5.3083   -4.4462    0.0000 C   0  0  0  0  0  0  0  0  0  0  0  0
   -5.3083   -5.9462    0.0000 C   0  0  0  0  0  0  0  0  0  0  0  0
   -3.8817   -6.4097    0.0000 C   0  0  0  0  0  0  0  0  0  0  0  0
   -3.0000   -5.1962    0.0000 C   0  0  0  0  0  0  0  0  0  0  0  0
   -1.5000   -5.1962    0.0000 C   0  0  0  0  0  0  0  0  0  0  0  0
   -0.7500   -6.4952    0.0000 O   0  0  0  0  0  0  0  0  0  0  0  0
   -0.7500   -3.8971    0.0000 N   0  0  0  0  0  0  0  0  0  0  0  0
    0.7500   -3.8971    0.0000 C   0  0  0  0  0  0  0  0  0  0  0  0
    1.5000   -2.5981    0.0000 C   0  0  0  0  0  0  0  0  0  0  0  0
    0.7500   -1.2990    0.0000 C   0  0  0  0  0  0  0  0  0  0  0  0
    1.5000    0.0000    0.0000 C   0  0  0  0  0  0  0  0  0  0  0  0
    0.7500    1.2990    0.0000 C   0  0  0  0  0  0  0  0  0  0  0  0
   -0.7500    1.2990    0.0000 C   0  0  0  0  0  0  0  0  0  0  0  0
   -1.5000    0.0000    0.0000 C   0  0  0  0  0  0  0  0  0  0  0  0
   -0.7500   -1.2990    0.0000 C   0  0  0  0  0  0  0  0  0  0  0  0
    1.5000   -5.1962    0.0000 C   0  0  0  0  0  0  0  0  0  0  0  0
    3.0000   -5.1962    0.0000 O   0  0  0  0  0  0  0  0  0  0  0  0
    0.7500   -6.4952    0.0000 C   0  0  0  0  0  0  0  0  0  0  0  0
    1.5000   -7.7942    0.0000 C   0  0  0  0  0  0  0  0  0  0  0  0
    0.7500   -9.0933    0.0000 C   0  0  0  0  0  0  0  0  0  0  0  0
    1.5000  -10.3923    0.0000 C   0  0  0  0  0  0  0  0  0  0  0  0
    0.7500  -11.6913    0.0000 C   0  0  0  0  0  0  0  0  0  0  0  0
    1.5000  -12.9904    0.0000 C   0  0  0  0  0  0  0  0  0  0  0  0
    3.0000  -12.9904    0.0000 C   0  0  0  0  0  0  0  0  0  0  0  0
    3.7500  -11.6913    0.0000 C   0  0  0  0  0  0  0  0  0  0  0  0
    3.0000  -10.3923    0.0000 C   0  0  0  0  0  0  0  0  0  0  0  0
    3.0000   -7.7942    0.0000 C   0  0  0  0  0  0  0  0  0  0  0  0
    3.7500   -6.4952    0.0000 O   0  0  0  0  0  0  0  0  0  0  0  0
    3.7500   -9.0933    0.0000 N   0  0  0  0  0  0  0  0  0  0  0  0
    5.2500   -9.0933    0.0000 C   0  0  0  0  0  0  0  0  0  0  0  0
    6.0000  -10.3923    0.0000 C   0  0  0  0  0  0  0  0  0  0  0  0
    7.5000  -10.3923    0.0000 C   0  0  0  0  0  0  0  0  0  0  0  0
    8.2500  -11.6913    0.0000 C   0  0  0  0  0  0  0  0  0  0  0  0
    9.7500  -11.6913    0.0000 C   0  0  0  0  0  0  0  0  0  0  0  0
   10.5000  -10.3923    0.0000 C   0  0  0  0  0  0  0  0  0  0  0  0
    9.7500   -9.0933    0.0000 C   0  0  0  0  0  0  0  0  0  0  0  0
    8.2500   -9.0933    0.0000 C   0  0  0  0  0  0  0  0  0  0  0  0
    6.0000   -7.7942    0.0000 C   0  0  0  0  0  0  0  0  0  0  0  0
    5.2500   -6.4952    0.0000 O   0  0  0  0  0  0  0  0  0  0  0  0
    7.5000   -7.7942    0.0000 O   0  0  0  0  0  0  0  0  0  0  0  0
  1  2  1  0
  2  3  1  0
  2  4  1  0
  2  5  1  0
  5  6  1  0
  6  7  2  0
  6  8  1  0
  8  9  1  0
  9 10  1  0
 10 11  1  0
 11 12  1  0
 12 13  1  0
 13 14  2  0
 13 15  1  0
 15 16  1  0
 16 17  1  0
 17 18  1  0
 18 19  2  0
 19 20  1  0
 20 21  2  0
 21 22  1  0
 22 23  2  0
 16 24  1  0
 24 25  1  0
 24 26  1  0
 26 27  1  0
 27 28  1  0
 28 29  1  0
 29 30  2  0
 30 31  1  0
 31 32  2  0
 32 33  1  0
 33 34  2  0
 27 35  1  0
 35 36  2  0
 35 37  1  0
 37 38  1  0
 38 39  1  0
 39 40  1  0
 40 41  2  0
 41 42  1  0
 42 43  2  0
 43 44  1  0
 44 45  2  0
 38 46  1  0
 46 47  2  0
 46 48  1  0
 12  8  1  0
 23 18  1  0
 34 29  1  0
 45 40  1  0
M  END
>  <Title>  (114) 
idAAEJgen4

$$$$

     RDKit          2D

 34 37  0  0  0  0  0  0  0  0999 V2000
    3.0000    0.0000    0.0000 C   0  0  0  0  0  0  0  0  0  0  0  0
    1.5000    0.0000    0.0000 C   0  0  0  0  0  0  0  0  0  0  0  0
    0.7500   -1.2990    0.0000 C   0  0  0  0  0  0  0  0  0  0  0  0
   -0.7500   -1.2990    0.0000 C   0  0  0  0  0  0  0  0  0  0  0  0
   -1.5000    0.0000    0.0000 C   0  0  0  0  0  0  0  0  0  0  0  0
   -0.7500    1.2990    0.0000 C   0  0  0  0  0  0  0  0  0  0  0  0
    0.7500    1.2990    0.0000 C   0  0  0  0  0  0  0  0  0  0  0  0
    1.5000    2.5981    0.0000 C   0  0  0  0  0  0  0  0  0  0  0  0
    0.7500    3.8971    0.0000 N   0  0  0  0  0  0  0  0  0  0  0  0
    1.5000    5.1962    0.0000 C   0  0  0  0  0  0  0  0  0  0  0  0
    3.0000    5.1962    0.0000 O   0  0  0  0  0  0  0  0  0  0  0  0
    0.7500    6.4952    0.0000 C   0  0  0  0  0  0  0  0  0  0  0  0
    1.5000    7.7942    0.0000 C   0  0  0  0  0  0  0  0  0  0  0  0
    0.7500    9.0933    0.0000 C   0  0  0  0  0  0  0  0  0  0  0  0
   -0.7500    9.0933    0.0000 C   0  0  0  0  0  0  0  0  0  0  0  0
   -1.5000   10.3923    0.0000 N   0  0  0  0  0  0  0  0  0  0  0  0
   -0.7500   11.6913    0.0000 C   0  0  0  0  0  0  0  0  0  0  0  0
    0.7500   11.6913    0.0000 O   0  0  0  0  0  0  0  0  0  0  0  0
   -1.5000   12.9904    0.0000 C   0  0  0  0  0  0  0  0  0  0  0  0
   -0.7500   14.2894    0.0000 C   0  0  0  0  0  0  0  0  0  0  0  0
   -1.5000   15.5885    0.0000 C   0  0  0  0  0  0  0  0  0  0  0  0
   -3.0000   15.5885    0.0000 C   0  0  0  0  0  0  0  0  0  0  0  0
   -3.7500   14.2894    0.0000 C   0  0  0  0  0  0  0  0  0  0  0  0
   -5.2500   14.2894    0.0000 S   0  0  0  0  0  0  0  0  0  0  0  0
   -5.2500   15.7894    0.0000 O   0  0  0  0  0  0  0  0  0  0  0  0
   -5.2500   12.7894    0.0000 O   0  0  0  0  0  0  0  0  0  0  0  0
   -6.7500   14.2894    0.0000 N   0  0  0  0  0  0  0  0  0  0  0  0
   -7.6317   13.0759    0.0000 C   0  0  0  0  0  0  0  0  0  0  0  0
   -9.0583   13.5394    0.0000 C   0  0  0  0  0  0  0  0  0  0  0  0
   -9.0583   15.0394    0.0000 C   0  0  0  0  0  0  0  0  0  0  0  0
   -7.6317   15.5029    0.0000 C   0  0  0  0  0  0  0  0  0  0  0  0
   -3.0000   12.9904    0.0000 C   0  0  0  0  0  0  0  0  0  0  0  0
   -1.5000    7.7942    0.0000 C   0  0  0  0  0  0  0  0  0  0  0  0
   -0.7500    6.4952    0.0000 C   0  0  0  0  0  0  0  0  0  0  0  0
  1  2  1  0
  2  3  2  0
  3  4  1  0
  4  5  2  0
  5  6  1  0
  6  7  2  0
  7  8  1  0
  8  9  1  0
  9 10  1  0
 10 11  2  0
 10 12  1  0
 12 13  2  0
 13 14  1  0
 14 15  2  0
 15 16  1  0
 16 17  1  0
 17 18  2  0
 17 19  1  0
 19 20  2  0
 20 21  1  0
 21 22  2  0
 22 23  1  0
 23 24  1  0
 24 25  2  0
 24 26  2  0
 24 27  1  0
 27 28  1  0
 28 29  1  0
 29 30  1  0
 30 31  1  0
 23 32  2  0
 15 33  1  0
 33 34  2  0
  7  2  1  0
 34 12  1  0
 32 19  1  0
 31 27  1  0
M  END
>  <Title>  (115) 
idAAEKgen4

$$$$

     RDKit          2D

 70 76  0  0  0  0  0  0  0  0999 V2000
  -10.9140   17.5520    0.0000 C   0  0  0  0  0  0  0  0  0  0  0  0
  -10.1640   16.2529    0.0000 C   0  0  0  0  0  0  0  0  0  0  0  0
  -10.8221   15.3797    0.0000 C   0  0  0  0  0  0  0  0  0  0  0  0
   -8.6640   16.2529    0.0000 C   0  0  0  0  0  0  0  0  0  0  0  0
   -7.9140   14.9539    0.0000 C   0  0  0  0  0  0  0  0  0  0  0  0
   -8.6640   13.6549    0.0000 N   0  0  0  0  0  0  0  0  0  0  0  0
  -10.1640   13.6549    0.0000 S   0  0  0  0  0  0  0  0  0  0  0  0
  -10.2973   14.7402    0.0000 O   0  0  0  0  0  0  0  0  0  0  0  0
  -10.1640   12.1549    0.0000 O   0  0  0  0  0  0  0  0  0  0  0  0
  -11.6640   13.6549    0.0000 C   0  0  0  0  0  0  0  0  0  0  0  0
  -12.4140   14.9539    0.0000 C   0  0  0  0  0  0  0  0  0  0  0  0
  -13.9140   14.9539    0.0000 C   0  0  0  0  0  0  0  0  0  0  0  0
  -14.6640   13.6549    0.0000 C   0  0  0  0  0  0  0  0  0  0  0  0
  -13.9140   12.3558    0.0000 C   0  0  0  0  0  0  0  0  0  0  0  0
  -12.4140   12.3558    0.0000 C   0  0  0  0  0  0  0  0  0  0  0  0
   -6.4140   14.9539    0.0000 C   0  0  0  0  0  0  0  0  0  0  0  0
   -6.1943   15.7202    0.0000 O   0  0  0  0  0  0  0  0  0  0  0  0
   -5.6640   13.6549    0.0000 N   0  0  0  0  0  0  0  0  0  0  0  0
   -4.1640   13.6549    0.0000 C   0  0  0  0  0  0  0  0  0  0  0  0
   -3.4140   14.9539    0.0000 C   0  0  0  0  0  0  0  0  0  0  0  0
   -4.1640   16.2529    0.0000 C   0  0  0  0  0  0  0  0  0  0  0  0
   -3.4140   17.5520    0.0000 C   0  0  0  0  0  0  0  0  0  0  0  0
   -4.1640   18.8510    0.0000 C   0  0  0  0  0  0  0  0  0  0  0  0
   -5.6640   18.8510    0.0000 C   0  0  0  0  0  0  0  0  0  0  0  0
   -6.4140   17.5520    0.0000 C   0  0  0  0  0  0  0  0  0  0  0  0
   -5.6640   16.2529    0.0000 C   0  0  0  0  0  0  0  0  0  0  0  0
   -3.4140   12.3558    0.0000 C   0  0  0  0  0  0  0  0  0  0  0  0
   -1.9585   12.7188    0.0000 O   0  0  0  0  0  0  0  0  0  0  0  0
   -4.1640   11.0568    0.0000 C   0  0  0  0  0  0  0  0  0  0  0  0
   -3.4140    9.7578    0.0000 N   0  0  0  0  0  0  0  0  0  0  0  0
   -1.9140    9.7578    0.0000 C   0  0  0  0  0  0  0  0  0  0  0  0
   -1.1640   11.0568    0.0000 C   0  0  0  0  0  0  0  0  0  0  0  0
    0.3360   11.0568    0.0000 C   0  0  0  0  0  0  0  0  0  0  0  0
    1.0860   12.3558    0.0000 C   0  0  0  0  0  0  0  0  0  0  0  0
    0.3360   13.6549    0.0000 C   0  0  0  0  0  0  0  0  0  0  0  0
   -1.1640   13.6549    0.0000 C   0  0  0  0  0  0  0  0  0  0  0  0
   -1.9140   12.3558    0.0000 C   0  0  0  0  0  0  0  0  0  0  0  0
   -4.1640    8.4587    0.0000 C   0  0  0  0  0  0  0  0  0  0  0  0
   -3.4140    7.1597    0.0000 O   0  0  0  0  0  0  0  0  0  0  0  0
   -5.6640    8.4587    0.0000 C   0  0  0  0  0  0  0  0  0  0  0  0
   -6.4140    9.7578    0.0000 C   0  0  0  0  0  0  0  0  0  0  0  0
   -5.6640   11.0568    0.0000 C   0  0  0  0  0  0  0  0  0  0  0  0
   -4.1640   11.0568    0.0000 C   0  0  0  0  0  0  0  0  0  0  0  0
   -3.4140   12.3558    0.0000 C   0  0  0  0  0  0  0  0  0  0  0  0
   -4.1640   13.6549    0.0000 C   0  0  0  0  0  0  0  0  0  0  0  0
   -5.6640   13.6549    0.0000 C   0  0  0  0  0  0  0  0  0  0  0  0
   -6.4140   12.3558    0.0000 C   0  0  0  0  0  0  0  0  0  0  0  0
   -6.4140    7.1597    0.0000 N   0  0  0  0  0  0  0  0  0  0  0  0
   -5.6640    5.8606    0.0000 C   0  0  0  0  0  0  0  0  0  0  0  0
   -4.1640    5.8606    0.0000 O   0  0  0  0  0  0  0  0  0  0  0  0
   -6.4140    4.5616    0.0000 C   0  0  0  0  0  0  0  0  0  0  0  0
   -7.9140    4.5616    0.0000 C   0  0  0  0  0  0  0  0  0  0  0  0
   -8.6640    5.8606    0.0000 C   0  0  0  0  0  0  0  0  0  0  0  0
   -7.9140    7.1597    0.0000 C   0  0  0  0  0  0  0  0  0  0  0  0
   -8.6640    8.4587    0.0000 C   0  0  0  0  0  0  0  0  0  0  0  0
  -10.1640    8.4587    0.0000 C   0  0  0  0  0  0  0  0  0  0  0  0
  -10.9140    7.1597    0.0000 C   0  0  0  0  0  0  0  0  0  0  0  0
  -10.1640    5.8606    0.0000 C   0  0  0  0  0  0  0  0  0  0  0  0
   -5.6640    3.2626    0.0000 N   0  0  0  0  0  0  0  0  0  0  0  0
   -4.1640    3.2626    0.0000 C   0  0  0  0  0  0  0  0  0  0  0  0
   -3.4140    4.5616    0.0000 O   0  0  0  0  0  0  0  0  0  0  0  0
   -3.4140    1.9635    0.0000 O   0  0  0  0  0  0  0  0  0  0  0  0
   -1.9140    1.9635    0.0000 C   0  0  0  0  0  0  0  0  0  0  0  0
   -1.0323    3.1771    0.0000 C   0  0  0  0  0  0  0  0  0  0  0  0
    0.3943    2.7135    0.0000 O   0  0  0  0  0  0  0  0  0  0  0  0
    0.3943    1.2135    0.0000 C   0  0  0  0  0  0  0  0  0  0  0  0
    1.2760    0.0000    0.0000 O   0  0  0  0  0  0  0  0  0  0  0  0
    0.3943   -1.2135    0.0000 C   0  0  0  0  0  0  0  0  0  0  0  0
   -1.0323   -0.7500    0.0000 C   0  0  0  0  0  0  0  0  0  0  0  0
   -1.0323    0.7500    0.0000 C   0  0  0  0  0  0  0  0  0  0  0  0
  1  2  1  0
  2  3  1  0
  2  4  1  0
  4  5  1  0
  5  6  1  0
  6  7  1  0
  7  8  2  0
  7  9  2  0
  7 10  1  0
 10 11  2  0
 11 12  1  0
 12 13  2  0
 13 14  1  0
 14 15  2  0
  5 16  1  0
 16 17  2  0
 16 18  1  0
 18 19  1  0
 19 20  1  0
 20 21  1  0
 21 22  2  0
 22 23  1  0
 23 24  2  0
 24 25  1  0
 25 26  2  0
 19 27  1  0
 27 28  1  0
 27 29  1  0
 29 30  1  0
 30 31  1  0
 31 32  1  0
 32 33  2  0
 33 34  1  0
 34 35  2  0
 35 36  1  0
 36 37  2  0
 30 38  1  0
 38 39  2  0
 38 40  1  0
 40 41  1  0
 41 42  1  0
 42 43  2  0
 43 44  1  0
 44 45  2  0
 45 46  1  0
 46 47  2  0
 40 48  1  0
 48 49  1  0
 49 50  2  0
 49 51  1  0
 51 52  1  0
 52 53  1  0
 53 54  2  0
 54 55  1  0
 55 56  2  0
 56 57  1  0
 57 58  2  0
 51 59  1  0
 59 60  1  0
 60 61  2  0
 60 62  1  0
 62 63  1  0
 63 64  1  0
 64 65  1  0
 65 66  1  0
 66 67  1  0
 67 68  1  0
 68 69  1  0
 69 70  1  0
 15 10  1  0
 26 21  1  0
 37 32  1  0
 47 42  1  0
 58 53  1  0
 70 63  1  0
 70 66  1  0
M  END
>  <Title>  (116) 
idAAELgen4

$$$$

     RDKit          2D

 48 51  0  0  0  0  0  0  0  0999 V2000
    5.2500   -2.7990    0.0000 C   0  0  0  0  0  0  0  0  0  0  0  0
    5.2500   -1.2990    0.0000 C   0  0  0  0  0  0  0  0  0  0  0  0
    5.2500    0.2010    0.0000 C   0  0  0  0  0  0  0  0  0  0  0  0
    6.7500   -1.2990    0.0000 C   0  0  0  0  0  0  0  0  0  0  0  0
    3.7500   -1.2990    0.0000 O   0  0  0  0  0  0  0  0  0  0  0  0
    3.0000    0.0000    0.0000 C   0  0  0  0  0  0  0  0  0  0  0  0
    3.7500    1.2990    0.0000 O   0  0  0  0  0  0  0  0  0  0  0  0
    1.5000    0.0000    0.0000 N   0  0  0  0  0  0  0  0  0  0  0  0
    0.7500   -1.2990    0.0000 C   0  0  0  0  0  0  0  0  0  0  0  0
   -0.7500   -1.2990    0.0000 C   0  0  0  0  0  0  0  0  0  0  0  0
   -1.5000    0.0000    0.0000 C   0  0  0  0  0  0  0  0  0  0  0  0
   -3.0000    0.0000    0.0000 C   0  0  0  0  0  0  0  0  0  0  0  0
   -3.7500    1.2990    0.0000 C   0  0  0  0  0  0  0  0  0  0  0  0
   -3.0000    2.5981    0.0000 O   0  0  0  0  0  0  0  0  0  0  0  0
   -5.2500    1.2990    0.0000 N   0  0  0  0  0  0  0  0  0  0  0  0
   -6.0000    2.5981    0.0000 C   0  0  0  0  0  0  0  0  0  0  0  0
   -5.2500    3.8971    0.0000 C   0  0  0  0  0  0  0  0  0  0  0  0
   -6.0000    5.1962    0.0000 C   0  0  0  0  0  0  0  0  0  0  0  0
   -7.5000    5.1962    0.0000 C   0  0  0  0  0  0  0  0  0  0  0  0
   -8.2500    3.8971    0.0000 C   0  0  0  0  0  0  0  0  0  0  0  0
   -7.5000    2.5981    0.0000 C   0  0  0  0  0  0  0  0  0  0  0  0
   -0.7500    1.2990    0.0000 C   0  0  0  0  0  0  0  0  0  0  0  0
    0.7500    1.2990    0.0000 C   0  0  0  0  0  0  0  0  0  0  0  0
    1.5000    2.5981    0.0000 C   0  0  0  0  0  0  0  0  0  0  0  0
    0.7500    3.8971    0.0000 O   0  0  0  0  0  0  0  0  0  0  0  0
    3.0000    2.5981    0.0000 N   0  0  0  0  0  0  0  0  0  0  0  0
    3.7500    3.8971    0.0000 C   0  0  0  0  0  0  0  0  0  0  0  0
    5.2500    3.8971    0.0000 C   0  0  0  0  0  0  0  0  0  0  0  0
    6.0000    5.1962    0.0000 C   0  0  0  0  0  0  0  0  0  0  0  0
    7.5000    5.1962    0.0000 C   0  0  0  0  0  0  0  0  0  0  0  0
    8.2500    6.4952    0.0000 C   0  0  0  0  0  0  0  0  0  0  0  0
    7.5000    7.7942    0.0000 C   0  0  0  0  0  0  0  0  0  0  0  0
    6.0000    7.7942    0.0000 C   0  0  0  0  0  0  0  0  0  0  0  0
    5.2500    6.4952    0.0000 C   0  0  0  0  0  0  0  0  0  0  0  0
    3.0000    5.1962    0.0000 C   0  0  0  0  0  0  0  0  0  0  0  0
    1.5000    5.1962    0.0000 O   0  0  0  0  0  0  0  0  0  0  0  0
    3.7500    6.4952    0.0000 N   0  0  0  0  0  0  0  0  0  0  0  0
    3.0000    7.7942    0.0000 C   0  0  0  0  0  0  0  0  0  0  0  0
    3.7500    9.0933    0.0000 C   0  0  0  0  0  0  0  0  0  0  0  0
    3.0000   10.3923    0.0000 C   0  0  0  0  0  0  0  0  0  0  0  0
    3.7500   11.6913    0.0000 C   0  0  0  0  0  0  0  0  0  0  0  0
    3.0000   12.9904    0.0000 C   0  0  0  0  0  0  0  0  0  0  0  0
    1.5000   12.9904    0.0000 C   0  0  0  0  0  0  0  0  0  0  0  0
    0.7500   11.6913    0.0000 C   0  0  0  0  0  0  0  0  0  0  0  0
    1.5000   10.3923    0.0000 C   0  0  0  0  0  0  0  0  0  0  0  0
    1.5000    7.7942    0.0000 C   0  0  0  0  0  0  0  0  0  0  0  0
    0.7500    6.4952    0.0000 O   0  0  0  0  0  0  0  0  0  0  0  0
    0.7500    9.0933    0.0000 O   0  0  0  0  0  0  0  0  0  0  0  0
  1  2  1  0
  2  3  1  0
  2  4  1  0
  2  5  1  0
  5  6  1  0
  6  7  2  0
  6  8  1  0
  8  9  1  0
  9 10  1  0
 10 11  1  0
 11 12  1  0
 12 13  1  0
 13 14  2  0
 13 15  1  0
 15 16  1  0
 16 17  2  0
 17 18  1  0
 18 19  2  0
 19 20  1  0
 20 21  2  0
 11 22  1  0
 22 23  1  0
 23 24  1  0
 24 25  2  0
 24 26  1  0
 26 27  1  0
 27 28  1  0
 28 29  1  0
 29 30  2  0
 30 31  1  0
 31 32  2  0
 32 33  1  0
 33 34  2  0
 27 35  1  0
 35 36  2  0
 35 37  1  0
 37 38  1  0
 38 39  1  0
 39 40  1  0
 40 41  2  0
 41 42  1  0
 42 43  2  0
 43 44  1  0
 44 45  2  0
 38 46  1  0
 46 47  2  0
 46 48  1  0
 23  8  1  0
 34 29  1  0
 45 40  1  0
 21 16  1  0
M  END
>  <Title>  (117) 
idAAEMgen4

$$$$

     RDKit          2D

 21 23  0  0  0  0  0  0  0  0999 V2000
    2.7760    0.0000    0.0000 C   0  0  0  0  0  0  0  0  0  0  0  0
    1.2760    0.0000    0.0000 C   0  0  0  0  0  0  0  0  0  0  0  0
    0.3943    1.2135    0.0000 C   0  0  0  0  0  0  0  0  0  0  0  0
   -1.0323    0.7500    0.0000 C   0  0  0  0  0  0  0  0  0  0  0  0
   -2.2458    1.6317    0.0000 C   0  0  0  0  0  0  0  0  0  0  0  0
   -1.0323   -0.7500    0.0000 N   0  0  0  0  0  0  0  0  0  0  0  0
   -2.2458   -1.6317    0.0000 C   0  0  0  0  0  0  0  0  0  0  0  0
   -2.0890   -3.1235    0.0000 C   0  0  0  0  0  0  0  0  0  0  0  0
   -0.7900   -3.8735    0.0000 C   0  0  0  0  0  0  0  0  0  0  0  0
   -1.1018   -5.3407    0.0000 C   0  0  0  0  0  0  0  0  0  0  0  0
   -2.5936   -5.4975    0.0000 C   0  0  0  0  0  0  0  0  0  0  0  0
   -3.2037   -4.1272    0.0000 N   0  0  0  0  0  0  0  0  0  0  0  0
   -4.6710   -3.8153    0.0000 C   0  0  0  0  0  0  0  0  0  0  0  0
   -5.1345   -2.3887    0.0000 O   0  0  0  0  0  0  0  0  0  0  0  0
   -5.6747   -4.9300    0.0000 C   0  0  0  0  0  0  0  0  0  0  0  0
   -5.3628   -6.3972    0.0000 C   0  0  0  0  0  0  0  0  0  0  0  0
   -6.6618   -7.1472    0.0000 N   0  0  0  0  0  0  0  0  0  0  0  0
   -7.7765   -6.1435    0.0000 N   0  0  0  0  0  0  0  0  0  0  0  0
   -9.2438   -6.4554    0.0000 C   0  0  0  0  0  0  0  0  0  0  0  0
   -7.1664   -4.7732    0.0000 C   0  0  0  0  0  0  0  0  0  0  0  0
    0.3943   -1.2135    0.0000 N   0  0  0  0  0  0  0  0  0  0  0  0
  1  2  1  0
  2  3  1  0
  3  4  2  0
  4  5  1  0
  4  6  1  0
  6  7  1  0
  7  8  1  0
  8  9  1  0
  9 10  1  0
 10 11  1  0
 11 12  1  0
 12 13  1  0
 13 14  2  0
 13 15  1  0
 15 16  1  0
 16 17  2  0
 17 18  1  0
 18 19  1  0
 18 20  1  0
  6 21  1  0
 21  2  2  0
 12  8  1  0
 20 15  2  0
M  END
>  <Title>  (118) 
idAAENgen4

$$$$

     RDKit          2D

 31 33  0  0  0  0  0  0  0  0999 V2000
    5.2500   -1.2990    0.0000 C   0  0  0  0  0  0  0  0  0  0  0  0
    3.7500   -1.2990    0.0000 C   0  0  0  0  0  0  0  0  0  0  0  0
    3.0000    0.0000    0.0000 O   0  0  0  0  0  0  0  0  0  0  0  0
    1.5000    0.0000    0.0000 C   0  0  0  0  0  0  0  0  0  0  0  0
    0.7500   -1.2990    0.0000 C   0  0  0  0  0  0  0  0  0  0  0  0
   -0.7500   -1.2990    0.0000 C   0  0  0  0  0  0  0  0  0  0  0  0
   -1.5000    0.0000    0.0000 C   0  0  0  0  0  0  0  0  0  0  0  0
   -3.0000    0.0000    0.0000 C   0  0  0  0  0  0  0  0  0  0  0  0
   -3.7500    1.2990    0.0000 N   0  0  0  0  0  0  0  0  0  0  0  0
   -5.2500    1.2990    0.0000 C   0  0  0  0  0  0  0  0  0  0  0  0
   -6.0000    0.0000    0.0000 O   0  0  0  0  0  0  0  0  0  0  0  0
   -6.0000    2.5981    0.0000 C   0  0  0  0  0  0  0  0  0  0  0  0
   -7.5000    2.5981    0.0000 C   0  0  0  0  0  0  0  0  0  0  0  0
   -8.2500    3.8971    0.0000 C   0  0  0  0  0  0  0  0  0  0  0  0
   -9.7500    3.8971    0.0000 C   0  0  0  0  0  0  0  0  0  0  0  0
  -10.5000    5.1962    0.0000 C   0  0  0  0  0  0  0  0  0  0  0  0
  -12.0000    5.1962    0.0000 C   0  0  0  0  0  0  0  0  0  0  0  0
  -12.7500    3.8971    0.0000 C   0  0  0  0  0  0  0  0  0  0  0  0
  -14.2500    3.8971    0.0000 N   0  0  0  0  0  0  0  0  0  0  0  0
  -15.0000    5.1962    0.0000 C   0  0  0  0  0  0  0  0  0  0  0  0
  -14.2500    6.4952    0.0000 O   0  0  0  0  0  0  0  0  0  0  0  0
  -16.5000    5.1962    0.0000 C   0  0  0  0  0  0  0  0  0  0  0  0
  -17.2500    6.4952    0.0000 C   0  0  0  0  0  0  0  0  0  0  0  0
  -18.7500    6.4952    0.0000 C   0  0  0  0  0  0  0  0  0  0  0  0
  -19.5000    5.1962    0.0000 C   0  0  0  0  0  0  0  0  0  0  0  0
  -18.7500    3.8971    0.0000 C   0  0  0  0  0  0  0  0  0  0  0  0
  -17.2500    3.8971    0.0000 C   0  0  0  0  0  0  0  0  0  0  0  0
  -12.0000    2.5981    0.0000 C   0  0  0  0  0  0  0  0  0  0  0  0
  -10.5000    2.5981    0.0000 C   0  0  0  0  0  0  0  0  0  0  0  0
   -0.7500    1.2990    0.0000 C   0  0  0  0  0  0  0  0  0  0  0  0
    0.7500    1.2990    0.0000 C   0  0  0  0  0  0  0  0  0  0  0  0
  1  2  1  0
  2  3  1  0
  3  4  1  0
  4  5  2  0
  5  6  1  0
  6  7  2  0
  7  8  1  0
  8  9  1  0
  9 10  1  0
 10 11  2  0
 10 12  1  0
 12 13  1  0
 13 14  1  0
 14 15  1  0
 15 16  2  0
 16 17  1  0
 17 18  2  0
 18 19  1  0
 19 20  1  0
 20 21  2  0
 20 22  1  0
 22 23  2  0
 23 24  1  0
 24 25  2  0
 25 26  1  0
 26 27  2  0
 18 28  1  0
 28 29  2  0
  7 30  1  0
 30 31  2  0
 31  4  1  0
 29 15  1  0
 27 22  1  0
M  END
>  <Title>  (119) 
idAAEOgen4

$$$$

     RDKit          2D

 34 36  0  0  0  0  0  0  0  0999 V2000
    7.5000   -2.5981    0.0000 C   0  0  0  0  0  0  0  0  0  0  0  0
    6.0000   -2.5981    0.0000 C   0  0  0  0  0  0  0  0  0  0  0  0
    5.2500   -1.2990    0.0000 C   0  0  0  0  0  0  0  0  0  0  0  0
    3.7500   -1.2990    0.0000 C   0  0  0  0  0  0  0  0  0  0  0  0
    3.0000    0.0000    0.0000 O   0  0  0  0  0  0  0  0  0  0  0  0
    1.5000    0.0000    0.0000 C   0  0  0  0  0  0  0  0  0  0  0  0
    0.7500   -1.2990    0.0000 C   0  0  0  0  0  0  0  0  0  0  0  0
   -0.7500   -1.2990    0.0000 C   0  0  0  0  0  0  0  0  0  0  0  0
   -1.5000    0.0000    0.0000 C   0  0  0  0  0  0  0  0  0  0  0  0
   -0.7500    1.2990    0.0000 C   0  0  0  0  0  0  0  0  0  0  0  0
    0.7500    1.2990    0.0000 C   0  0  0  0  0  0  0  0  0  0  0  0
    1.5000    2.5981    0.0000 C   0  0  0  0  0  0  0  0  0  0  0  0
    3.0000    2.5981    0.0000 N   0  0  0  0  0  0  0  0  0  0  0  0
    3.7500    3.8971    0.0000 C   0  0  0  0  0  0  0  0  0  0  0  0
    3.0000    5.1962    0.0000 O   0  0  0  0  0  0  0  0  0  0  0  0
    5.2500    3.8971    0.0000 C   0  0  0  0  0  0  0  0  0  0  0  0
    6.0000    5.1962    0.0000 C   0  0  0  0  0  0  0  0  0  0  0  0
    7.5000    5.1962    0.0000 C   0  0  0  0  0  0  0  0  0  0  0  0
    8.2500    6.4952    0.0000 C   0  0  0  0  0  0  0  0  0  0  0  0
    7.5000    7.7942    0.0000 C   0  0  0  0  0  0  0  0  0  0  0  0
    6.0000    7.7942    0.0000 C   0  0  0  0  0  0  0  0  0  0  0  0
    5.2500    9.0933    0.0000 C   0  0  0  0  0  0  0  0  0  0  0  0
    3.7500    9.0933    0.0000 O   0  0  0  0  0  0  0  0  0  0  0  0
    6.0000   10.3923    0.0000 N   0  0  0  0  0  0  0  0  0  0  0  0
    5.2500   11.6913    0.0000 C   0  0  0  0  0  0  0  0  0  0  0  0
    6.0000   12.9904    0.0000 C   0  0  0  0  0  0  0  0  0  0  0  0
    3.7500   11.6913    0.0000 C   0  0  0  0  0  0  0  0  0  0  0  0
    3.0000   12.9904    0.0000 C   0  0  0  0  0  0  0  0  0  0  0  0
    3.7500   14.2894    0.0000 C   0  0  0  0  0  0  0  0  0  0  0  0
    3.0000   15.5885    0.0000 C   0  0  0  0  0  0  0  0  0  0  0  0
    1.5000   15.5885    0.0000 C   0  0  0  0  0  0  0  0  0  0  0  0
    0.7500   14.2894    0.0000 C   0  0  0  0  0  0  0  0  0  0  0  0
    1.5000   12.9904    0.0000 C   0  0  0  0  0  0  0  0  0  0  0  0
    5.2500    6.4952    0.0000 C   0  0  0  0  0  0  0  0  0  0  0  0
  1  2  1  0
  2  3  1  0
  3  4  1  0
  4  5  1  0
  5  6  1  0
  6  7  2  0
  7  8  1  0
  8  9  2  0
  9 10  1  0
 10 11  2  0
 11 12  1  0
 12 13  1  0
 13 14  1  0
 14 15  2  0
 14 16  1  0
 16 17  1  0
 17 18  2  0
 18 19  1  0
 19 20  2  0
 20 21  1  0
 21 22  1  0
 22 23  2  0
 22 24  1  0
 24 25  1  0
 25 26  1  0
 25 27  1  0
 27 28  1  0
 28 29  2  0
 29 30  1  0
 30 31  2  0
 31 32  1  0
 32 33  2  0
 21 34  2  0
 11  6  1  0
 34 17  1  0
 33 28  1  0
M  END
>  <Title>  (120) 
idAAEPgen4

$$$$

     RDKit          2D

 28 29  0  0  0  0  0  0  0  0999 V2000
   12.0000   -5.1962    0.0000 C   0  0  0  0  0  0  0  0  0  0  0  0
   10.5000   -5.1962    0.0000 C   0  0  0  0  0  0  0  0  0  0  0  0
    9.7500   -3.8971    0.0000 C   0  0  0  0  0  0  0  0  0  0  0  0
   10.5000   -2.5981    0.0000 O   0  0  0  0  0  0  0  0  0  0  0  0
    8.2500   -3.8971    0.0000 N   0  0  0  0  0  0  0  0  0  0  0  0
    7.5000   -2.5981    0.0000 C   0  0  0  0  0  0  0  0  0  0  0  0
    6.0000   -2.5981    0.0000 C   0  0  0  0  0  0  0  0  0  0  0  0
    5.2500   -1.2990    0.0000 N   0  0  0  0  0  0  0  0  0  0  0  0
    3.7500   -1.2990    0.0000 C   0  0  0  0  0  0  0  0  0  0  0  0
    3.0000   -2.5981    0.0000 O   0  0  0  0  0  0  0  0  0  0  0  0
    3.0000    0.0000    0.0000 C   0  0  0  0  0  0  0  0  0  0  0  0
    1.5000    0.0000    0.0000 C   0  0  0  0  0  0  0  0  0  0  0  0
    0.7500   -1.2990    0.0000 C   0  0  0  0  0  0  0  0  0  0  0  0
   -0.7500   -1.2990    0.0000 C   0  0  0  0  0  0  0  0  0  0  0  0
   -1.5000    0.0000    0.0000 C   0  0  0  0  0  0  0  0  0  0  0  0
   -3.0000    0.0000    0.0000 N   0  0  0  0  0  0  0  0  0  0  0  0
   -3.7500    1.2990    0.0000 C   0  0  0  0  0  0  0  0  0  0  0  0
   -3.0000    2.5981    0.0000 O   0  0  0  0  0  0  0  0  0  0  0  0
   -5.2500    1.2990    0.0000 C   0  0  0  0  0  0  0  0  0  0  0  0
   -6.0000    2.5981    0.0000 C   0  0  0  0  0  0  0  0  0  0  0  0
   -5.2500    3.8971    0.0000 C   0  0  0  0  0  0  0  0  0  0  0  0
   -6.0000    5.1962    0.0000 C   0  0  0  0  0  0  0  0  0  0  0  0
   -7.5000    5.1962    0.0000 C   0  0  0  0  0  0  0  0  0  0  0  0
   -8.2500    3.8971    0.0000 C   0  0  0  0  0  0  0  0  0  0  0  0
   -7.5000    2.5981    0.0000 C   0  0  0  0  0  0  0  0  0  0  0  0
   -8.2500    1.2990    0.0000 C   0  0  0  0  0  0  0  0  0  0  0  0
   -0.7500    1.2990    0.0000 C   0  0  0  0  0  0  0  0  0  0  0  0
    0.7500    1.2990    0.0000 C   0  0  0  0  0  0  0  0  0  0  0  0
  1  2  1  0
  2  3  1  0
  3  4  2  0
  3  5  1  0
  5  6  1  0
  6  7  1  0
  7  8  1  0
  8  9  1  0
  9 10  2  0
  9 11  1  0
 11 12  1  0
 12 13  2  0
 13 14  1  0
 14 15  2  0
 15 16  1  0
 16 17  1  0
 17 18  2  0
 17 19  1  0
 19 20  1  0
 20 21  2  0
 21 22  1  0
 22 23  2  0
 23 24  1  0
 24 25  2  0
 25 26  1  0
 15 27  1  0
 27 28  2  0
 28 12  1  0
 25 20  1  0
M  END
>  <Title>  (121) 
idAAEQgen4

$$$$

     RDKit          2D

 46 50  0  0  0  0  0  0  0  0999 V2000
   -6.4140   12.3558    0.0000 C   0  0  0  0  0  0  0  0  0  0  0  0
   -5.6640   11.0568    0.0000 C   0  0  0  0  0  0  0  0  0  0  0  0
   -4.1640   11.0568    0.0000 C   0  0  0  0  0  0  0  0  0  0  0  0
   -6.4140    9.7578    0.0000 C   0  0  0  0  0  0  0  0  0  0  0  0
   -5.6640    8.4587    0.0000 N   0  0  0  0  0  0  0  0  0  0  0  0
   -6.4140    7.1597    0.0000 C   0  0  0  0  0  0  0  0  0  0  0  0
   -5.6640    5.8606    0.0000 C   0  0  0  0  0  0  0  0  0  0  0  0
   -4.1640    5.8606    0.0000 O   0  0  0  0  0  0  0  0  0  0  0  0
   -6.4140    4.5616    0.0000 C   0  0  0  0  0  0  0  0  0  0  0  0
   -7.9140    4.5616    0.0000 C   0  0  0  0  0  0  0  0  0  0  0  0
   -8.6640    5.8606    0.0000 C   0  0  0  0  0  0  0  0  0  0  0  0
   -7.9140    7.1597    0.0000 C   0  0  0  0  0  0  0  0  0  0  0  0
   -8.6640    8.4587    0.0000 C   0  0  0  0  0  0  0  0  0  0  0  0
  -10.1640    8.4587    0.0000 C   0  0  0  0  0  0  0  0  0  0  0  0
  -10.9140    7.1597    0.0000 C   0  0  0  0  0  0  0  0  0  0  0  0
  -10.1640    5.8606    0.0000 C   0  0  0  0  0  0  0  0  0  0  0  0
   -5.6640    3.2626    0.0000 N   0  0  0  0  0  0  0  0  0  0  0  0
   -4.1640    3.2626    0.0000 C   0  0  0  0  0  0  0  0  0  0  0  0
   -3.4140    4.5616    0.0000 O   0  0  0  0  0  0  0  0  0  0  0  0
   -3.4140    1.9635    0.0000 O   0  0  0  0  0  0  0  0  0  0  0  0
   -1.9140    1.9635    0.0000 C   0  0  0  0  0  0  0  0  0  0  0  0
   -1.0323    3.1771    0.0000 C   0  0  0  0  0  0  0  0  0  0  0  0
    0.3943    2.7135    0.0000 O   0  0  0  0  0  0  0  0  0  0  0  0
    0.3943    1.2135    0.0000 C   0  0  0  0  0  0  0  0  0  0  0  0
    1.2760    0.0000    0.0000 O   0  0  0  0  0  0  0  0  0  0  0  0
    0.3943   -1.2135    0.0000 C   0  0  0  0  0  0  0  0  0  0  0  0
   -1.0323   -0.7500    0.0000 C   0  0  0  0  0  0  0  0  0  0  0  0
   -1.0323    0.7500    0.0000 C   0  0  0  0  0  0  0  0  0  0  0  0
   -4.1640    8.4587    0.0000 S   0  0  0  0  0  0  0  0  0  0  0  0
   -4.1640    6.9587    0.0000 O   0  0  0  0  0  0  0  0  0  0  0  0
   -4.1640    9.9587    0.0000 O   0  0  0  0  0  0  0  0  0  0  0  0
   -2.6640    8.4587    0.0000 C   0  0  0  0  0  0  0  0  0  0  0  0
   -1.9140    7.1597    0.0000 C   0  0  0  0  0  0  0  0  0  0  0  0
   -0.4140    7.1597    0.0000 C   0  0  0  0  0  0  0  0  0  0  0  0
    0.3360    8.4587    0.0000 C   0  0  0  0  0  0  0  0  0  0  0  0
    1.8360    8.4587    0.0000 N   0  0  0  0  0  0  0  0  0  0  0  0
    2.5860    7.1597    0.0000 C   0  0  0  0  0  0  0  0  0  0  0  0
    1.8360    5.8606    0.0000 O   0  0  0  0  0  0  0  0  0  0  0  0
    4.0860    7.1597    0.0000 C   0  0  0  0  0  0  0  0  0  0  0  0
    4.8360    5.8606    0.0000 C   0  0  0  0  0  0  0  0  0  0  0  0
    6.3360    5.8606    0.0000 C   0  0  0  0  0  0  0  0  0  0  0  0
    7.0860    7.1597    0.0000 C   0  0  0  0  0  0  0  0  0  0  0  0
    6.3360    8.4587    0.0000 C   0  0  0  0  0  0  0  0  0  0  0  0
    4.8360    8.4587    0.0000 C   0  0  0  0  0  0  0  0  0  0  0  0
   -0.4140    9.7578    0.0000 C   0  0  0  0  0  0  0  0  0  0  0  0
   -1.9140    9.7578    0.0000 C   0  0  0  0  0  0  0  0  0  0  0  0
  1  2  1  0
  2  3  1  0
  2  4  1  0
  4  5  1  0
  5  6  1  0
  6  7  1  0
  7  8  1  0
  7  9  1  0
  9 10  1  0
 10 11  1  0
 11 12  2  0
 12 13  1  0
 13 14  2  0
 14 15  1  0
 15 16  2  0
  9 17  1  0
 17 18  1  0
 18 19  2  0
 18 20  1  0
 20 21  1  0
 21 22  1  0
 22 23  1  0
 23 24  1  0
 24 25  1  0
 25 26  1  0
 26 27  1  0
 27 28  1  0
  5 29  1  0
 29 30  2  0
 29 31  2  0
 29 32  1  0
 32 33  2  0
 33 34  1  0
 34 35  2  0
 35 36  1  0
 36 37  1  0
 37 38  2  0
 37 39  1  0
 39 40  1  0
 40 41  1  0
 41 42  1  0
 42 43  1  0
 43 44  1  0
 35 45  1  0
 45 46  2  0
 16 11  1  0
 28 21  1  0
 46 32  1  0
 28 24  1  0
 44 39  1  0
M  END
>  <Title>  (122) 
idAAERgen4

$$$$

     RDKit          2D

 63 68  0  0  0  0  0  0  0  0999 V2000
    1.0860   12.3558    0.0000 C   0  0  0  0  0  0  0  0  0  0  0  0
    0.3360   11.0568    0.0000 C   0  0  0  0  0  0  0  0  0  0  0  0
    1.0860    9.7578    0.0000 C   0  0  0  0  0  0  0  0  0  0  0  0
   -1.1640   11.0568    0.0000 C   0  0  0  0  0  0  0  0  0  0  0  0
   -1.9140    9.7578    0.0000 N   0  0  0  0  0  0  0  0  0  0  0  0
   -3.4140    9.7578    0.0000 C   0  0  0  0  0  0  0  0  0  0  0  0
   -4.1640    8.4587    0.0000 C   0  0  0  0  0  0  0  0  0  0  0  0
   -3.4140    7.1597    0.0000 O   0  0  0  0  0  0  0  0  0  0  0  0
   -5.6640    8.4587    0.0000 C   0  0  0  0  0  0  0  0  0  0  0  0
   -6.4140    9.7578    0.0000 C   0  0  0  0  0  0  0  0  0  0  0  0
   -5.6640   11.0568    0.0000 C   0  0  0  0  0  0  0  0  0  0  0  0
   -4.1640   11.0568    0.0000 C   0  0  0  0  0  0  0  0  0  0  0  0
   -3.4140   12.3558    0.0000 C   0  0  0  0  0  0  0  0  0  0  0  0
   -4.1640   13.6549    0.0000 C   0  0  0  0  0  0  0  0  0  0  0  0
   -5.6640   13.6549    0.0000 C   0  0  0  0  0  0  0  0  0  0  0  0
   -6.4140   12.3558    0.0000 C   0  0  0  0  0  0  0  0  0  0  0  0
   -6.4140    7.1597    0.0000 N   0  0  0  0  0  0  0  0  0  0  0  0
   -5.6640    5.8606    0.0000 C   0  0  0  0  0  0  0  0  0  0  0  0
   -4.1640    5.8606    0.0000 O   0  0  0  0  0  0  0  0  0  0  0  0
   -6.4140    4.5616    0.0000 C   0  0  0  0  0  0  0  0  0  0  0  0
   -7.9140    4.5616    0.0000 C   0  0  0  0  0  0  0  0  0  0  0  0
   -8.6640    5.8606    0.0000 C   0  0  0  0  0  0  0  0  0  0  0  0
   -7.9140    7.1597    0.0000 C   0  0  0  0  0  0  0  0  0  0  0  0
   -8.6640    8.4587    0.0000 C   0  0  0  0  0  0  0  0  0  0  0  0
  -10.1640    8.4587    0.0000 C   0  0  0  0  0  0  0  0  0  0  0  0
  -10.9140    7.1597    0.0000 C   0  0  0  0  0  0  0  0  0  0  0  0
  -10.1640    5.8606    0.0000 C   0  0  0  0  0  0  0  0  0  0  0  0
   -5.6640    3.2626    0.0000 N   0  0  0  0  0  0  0  0  0  0  0  0
   -4.1640    3.2626    0.0000 C   0  0  0  0  0  0  0  0  0  0  0  0
   -3.4140    4.5616    0.0000 O   0  0  0  0  0  0  0  0  0  0  0  0
   -3.4140    1.9635    0.0000 O   0  0  0  0  0  0  0  0  0  0  0  0
   -1.9140    1.9635    0.0000 C   0  0  0  0  0  0  0  0  0  0  0  0
   -1.0323    3.1771    0.0000 C   0  0  0  0  0  0  0  0  0  0  0  0
    0.3943    2.7135    0.0000 O   0  0  0  0  0  0  0  0  0  0  0  0
    0.3943    1.2135    0.0000 C   0  0  0  0  0  0  0  0  0  0  0  0
    1.2760    0.0000    0.0000 O   0  0  0  0  0  0  0  0  0  0  0  0
    0.3943   -1.2135    0.0000 C   0  0  0  0  0  0  0  0  0  0  0  0
   -1.0323   -0.7500    0.0000 C   0  0  0  0  0  0  0  0  0  0  0  0
   -1.0323    0.7500    0.0000 C   0  0  0  0  0  0  0  0  0  0  0  0
   -1.1640    8.4587    0.0000 S   0  0  0  0  0  0  0  0  0  0  0  0
   -2.4630    7.7087    0.0000 O   0  0  0  0  0  0  0  0  0  0  0  0
    0.1351    9.2087    0.0000 O   0  0  0  0  0  0  0  0  0  0  0  0
   -0.4140    7.1597    0.0000 C   0  0  0  0  0  0  0  0  0  0  0  0
   -1.1640    5.8606    0.0000 C   0  0  0  0  0  0  0  0  0  0  0  0
   -0.4140    4.5616    0.0000 C   0  0  0  0  0  0  0  0  0  0  0  0
    1.0860    4.5616    0.0000 C   0  0  0  0  0  0  0  0  0  0  0  0
    1.8360    3.2626    0.0000 N   0  0  0  0  0  0  0  0  0  0  0  0
    3.3360    3.2626    0.0000 C   0  0  0  0  0  0  0  0  0  0  0  0
    4.0860    4.5616    0.0000 O   0  0  0  0  0  0  0  0  0  0  0  0
    4.0860    1.9635    0.0000 C   0  0  0  0  0  0  0  0  0  0  0  0
    3.3360    0.6645    0.0000 C   0  0  0  0  0  0  0  0  0  0  0  0
    4.0860   -0.6346    0.0000 C   0  0  0  0  0  0  0  0  0  0  0  0
    5.5860   -0.6346    0.0000 O   0  0  0  0  0  0  0  0  0  0  0  0
    3.3360   -1.9336    0.0000 O   0  0  0  0  0  0  0  0  0  0  0  0
    5.5860    1.9635    0.0000 C   0  0  0  0  0  0  0  0  0  0  0  0
    6.3360    3.2626    0.0000 C   0  0  0  0  0  0  0  0  0  0  0  0
    5.5860    4.5616    0.0000 C   0  0  0  0  0  0  0  0  0  0  0  0
    6.3360    5.8606    0.0000 C   0  0  0  0  0  0  0  0  0  0  0  0
    7.8360    5.8606    0.0000 C   0  0  0  0  0  0  0  0  0  0  0  0
    8.5860    4.5616    0.0000 C   0  0  0  0  0  0  0  0  0  0  0  0
    7.8360    3.2626    0.0000 C   0  0  0  0  0  0  0  0  0  0  0  0
    1.8360    5.8606    0.0000 C   0  0  0  0  0  0  0  0  0  0  0  0
    1.0860    7.1597    0.0000 C   0  0  0  0  0  0  0  0  0  0  0  0
  1  2  1  0
  2  3  1  0
  2  4  1  0
  4  5  1  0
  5  6  1  0
  6  7  1  0
  7  8  1  0
  7  9  1  0
  9 10  1  0
 10 11  1  0
 11 12  2  0
 12 13  1  0
 13 14  2  0
 14 15  1  0
 15 16  2  0
  9 17  1  0
 17 18  1  0
 18 19  2  0
 18 20  1  0
 20 21  1  0
 21 22  1  0
 22 23  2  0
 23 24  1  0
 24 25  2  0
 25 26  1  0
 26 27  2  0
 20 28  1  0
 28 29  1  0
 29 30  2  0
 29 31  1  0
 31 32  1  0
 32 33  1  0
 33 34  1  0
 34 35  1  0
 35 36  1  0
 36 37  1  0
 37 38  1  0
 38 39  1  0
  5 40  1  0
 40 41  2  0
 40 42  2  0
 40 43  1  0
 43 44  2  0
 44 45  1  0
 45 46  2  0
 46 47  1  0
 47 48  1  0
 48 49  2  0
 48 50  1  0
 50 51  1  0
 51 52  1  0
 52 53  2  0
 52 54  1  0
 50 55  1  0
 55 56  1  0
 56 57  2  0
 57 58  1  0
 58 59  2  0
 59 60  1  0
 60 61  2  0
 46 62  1  0
 62 63  2  0
 16 11  1  0
 27 22  1  0
 39 32  1  0
 63 43  1  0
 39 35  1  0
 61 56  1  0
M  END
>  <Title>  (123) 
idAAESgen4

$$$$

     RDKit          2D

 58 63  0  0  0  0  0  0  0  0999 V2000
   -0.6149   13.1058    0.0000 C   0  0  0  0  0  0  0  0  0  0  0  0
   -1.9140   12.3558    0.0000 C   0  0  0  0  0  0  0  0  0  0  0  0
   -3.2130   11.6058    0.0000 C   0  0  0  0  0  0  0  0  0  0  0  0
   -2.6640   13.6549    0.0000 C   0  0  0  0  0  0  0  0  0  0  0  0
   -1.1640   11.0568    0.0000 C   0  0  0  0  0  0  0  0  0  0  0  0
   -1.9140    9.7578    0.0000 C   0  0  0  0  0  0  0  0  0  0  0  0
   -3.4140    9.7578    0.0000 N   0  0  0  0  0  0  0  0  0  0  0  0
   -4.1640    8.4587    0.0000 C   0  0  0  0  0  0  0  0  0  0  0  0
   -3.4140    7.1597    0.0000 O   0  0  0  0  0  0  0  0  0  0  0  0
   -5.6640    8.4587    0.0000 C   0  0  0  0  0  0  0  0  0  0  0  0
   -6.4140    9.7578    0.0000 C   0  0  0  0  0  0  0  0  0  0  0  0
   -5.6640   11.0568    0.0000 C   0  0  0  0  0  0  0  0  0  0  0  0
   -4.1640   11.0568    0.0000 C   0  0  0  0  0  0  0  0  0  0  0  0
   -3.4140   12.3558    0.0000 C   0  0  0  0  0  0  0  0  0  0  0  0
   -4.1640   13.6549    0.0000 C   0  0  0  0  0  0  0  0  0  0  0  0
   -5.6640   13.6549    0.0000 C   0  0  0  0  0  0  0  0  0  0  0  0
   -6.4140   12.3558    0.0000 C   0  0  0  0  0  0  0  0  0  0  0  0
   -6.4140    7.1597    0.0000 N   0  0  0  0  0  0  0  0  0  0  0  0
   -5.6640    5.8606    0.0000 C   0  0  0  0  0  0  0  0  0  0  0  0
   -4.1640    5.8606    0.0000 O   0  0  0  0  0  0  0  0  0  0  0  0
   -6.4140    4.5616    0.0000 C   0  0  0  0  0  0  0  0  0  0  0  0
   -7.9140    4.5616    0.0000 C   0  0  0  0  0  0  0  0  0  0  0  0
   -8.6640    5.8606    0.0000 C   0  0  0  0  0  0  0  0  0  0  0  0
   -7.9140    7.1597    0.0000 C   0  0  0  0  0  0  0  0  0  0  0  0
   -8.6640    8.4587    0.0000 C   0  0  0  0  0  0  0  0  0  0  0  0
  -10.1640    8.4587    0.0000 C   0  0  0  0  0  0  0  0  0  0  0  0
  -10.9140    7.1597    0.0000 C   0  0  0  0  0  0  0  0  0  0  0  0
  -10.1640    5.8606    0.0000 C   0  0  0  0  0  0  0  0  0  0  0  0
   -5.6640    3.2626    0.0000 N   0  0  0  0  0  0  0  0  0  0  0  0
   -4.1640    3.2626    0.0000 C   0  0  0  0  0  0  0  0  0  0  0  0
   -3.4140    4.5616    0.0000 O   0  0  0  0  0  0  0  0  0  0  0  0
   -3.4140    1.9635    0.0000 O   0  0  0  0  0  0  0  0  0  0  0  0
   -1.9140    1.9635    0.0000 C   0  0  0  0  0  0  0  0  0  0  0  0
   -1.0323    3.1771    0.0000 C   0  0  0  0  0  0  0  0  0  0  0  0
    0.3943    2.7135    0.0000 O   0  0  0  0  0  0  0  0  0  0  0  0
    0.3943    1.2135    0.0000 C   0  0  0  0  0  0  0  0  0  0  0  0
    1.2760    0.0000    0.0000 O   0  0  0  0  0  0  0  0  0  0  0  0
    0.3943   -1.2135    0.0000 C   0  0  0  0  0  0  0  0  0  0  0  0
   -1.0323   -0.7500    0.0000 C   0  0  0  0  0  0  0  0  0  0  0  0
   -1.0323    0.7500    0.0000 C   0  0  0  0  0  0  0  0  0  0  0  0
   -1.1640    8.4587    0.0000 S   0  0  0  0  0  0  0  0  0  0  0  0
   -2.4630    7.7087    0.0000 O   0  0  0  0  0  0  0  0  0  0  0  0
    0.1351    9.2087    0.0000 O   0  0  0  0  0  0  0  0  0  0  0  0
   -0.4140    7.1597    0.0000 C   0  0  0  0  0  0  0  0  0  0  0  0
   -1.1640    5.8606    0.0000 C   0  0  0  0  0  0  0  0  0  0  0  0
   -0.4140    4.5616    0.0000 C   0  0  0  0  0  0  0  0  0  0  0  0
    1.0860    4.5616    0.0000 C   0  0  0  0  0  0  0  0  0  0  0  0
    1.8360    3.2626    0.0000 N   0  0  0  0  0  0  0  0  0  0  0  0
    3.3360    3.2626    0.0000 C   0  0  0  0  0  0  0  0  0  0  0  0
    4.0860    4.5616    0.0000 O   0  0  0  0  0  0  0  0  0  0  0  0
    4.0860    1.9635    0.0000 C   0  0  0  0  0  0  0  0  0  0  0  0
    3.3360    0.6645    0.0000 C   0  0  0  0  0  0  0  0  0  0  0  0
    4.0860   -0.6346    0.0000 C   0  0  0  0  0  0  0  0  0  0  0  0
    5.5860   -0.6346    0.0000 C   0  0  0  0  0  0  0  0  0  0  0  0
    6.3360    0.6645    0.0000 C   0  0  0  0  0  0  0  0  0  0  0  0
    5.5860    1.9635    0.0000 C   0  0  0  0  0  0  0  0  0  0  0  0
    1.8360    5.8606    0.0000 C   0  0  0  0  0  0  0  0  0  0  0  0
    1.0860    7.1597    0.0000 C   0  0  0  0  0  0  0  0  0  0  0  0
  1  2  1  0
  2  3  1  0
  2  4  1  0
  2  5  1  0
  5  6  1  0
  6  7  1  0
  7  8  1  0
  8  9  2  0
  8 10  1  0
 10 11  1  0
 11 12  1  0
 12 13  2  0
 13 14  1  0
 14 15  2  0
 15 16  1  0
 16 17  2  0
 10 18  1  0
 18 19  1  0
 19 20  2  0
 19 21  1  0
 21 22  1  0
 22 23  1  0
 23 24  2  0
 24 25  1  0
 25 26  2  0
 26 27  1  0
 27 28  2  0
 21 29  1  0
 29 30  1  0
 30 31  2  0
 30 32  1  0
 32 33  1  0
 33 34  1  0
 34 35  1  0
 35 36  1  0
 36 37  1  0
 37 38  1  0
 38 39  1  0
 39 40  1  0
  6 41  1  0
 41 42  2  0
 41 43  2  0
 41 44  1  0
 44 45  2  0
 45 46  1  0
 46 47  2  0
 47 48  1  0
 48 49  1  0
 49 50  2  0
 49 51  1  0
 51 52  1  0
 52 53  1  0
 53 54  1  0
 54 55  1  0
 55 56  1  0
 47 57  1  0
 57 58  2  0
 17 12  1  0
 28 23  1  0
 40 33  1  0
 58 44  1  0
 40 36  1  0
 56 51  1  0
M  END
>  <Title>  (124) 
idAAETgen4

$$$$

     RDKit          2D

 25 27  0  0  0  0  0  0  0  0999 V2000
    3.0000    0.0000    0.0000 C   0  0  0  0  0  0  0  0  0  0  0  0
    1.5000    0.0000    0.0000 C   0  0  0  0  0  0  0  0  0  0  0  0
    0.7500   -1.2990    0.0000 C   0  0  0  0  0  0  0  0  0  0  0  0
   -0.7500   -1.2990    0.0000 C   0  0  0  0  0  0  0  0  0  0  0  0
   -1.5000    0.0000    0.0000 C   0  0  0  0  0  0  0  0  0  0  0  0
   -3.0000    0.0000    0.0000 C   0  0  0  0  0  0  0  0  0  0  0  0
   -3.7500    1.2990    0.0000 N   0  0  0  0  0  0  0  0  0  0  0  0
   -5.2500    1.2990    0.0000 C   0  0  0  0  0  0  0  0  0  0  0  0
   -6.0000    0.0000    0.0000 O   0  0  0  0  0  0  0  0  0  0  0  0
   -6.0000    2.5981    0.0000 C   0  0  0  0  0  0  0  0  0  0  0  0
   -5.2500    3.8971    0.0000 C   0  0  0  0  0  0  0  0  0  0  0  0
   -6.0000    5.1962    0.0000 C   0  0  0  0  0  0  0  0  0  0  0  0
   -7.5000    5.1962    0.0000 C   0  0  0  0  0  0  0  0  0  0  0  0
   -8.2500    3.8971    0.0000 C   0  0  0  0  0  0  0  0  0  0  0  0
   -9.7500    3.8971    0.0000 S   0  0  0  0  0  0  0  0  0  0  0  0
   -9.7500    5.3971    0.0000 O   0  0  0  0  0  0  0  0  0  0  0  0
   -9.7500    2.3971    0.0000 O   0  0  0  0  0  0  0  0  0  0  0  0
  -11.2500    3.8971    0.0000 N   0  0  0  0  0  0  0  0  0  0  0  0
  -12.1317    2.6836    0.0000 C   0  0  0  0  0  0  0  0  0  0  0  0
  -13.5583    3.1471    0.0000 C   0  0  0  0  0  0  0  0  0  0  0  0
  -13.5583    4.6471    0.0000 C   0  0  0  0  0  0  0  0  0  0  0  0
  -12.1317    5.1106    0.0000 C   0  0  0  0  0  0  0  0  0  0  0  0
   -7.5000    2.5981    0.0000 C   0  0  0  0  0  0  0  0  0  0  0  0
   -0.7500    1.2990    0.0000 C   0  0  0  0  0  0  0  0  0  0  0  0
    0.7500    1.2990    0.0000 C   0  0  0  0  0  0  0  0  0  0  0  0
  1  2  1  0
  2  3  2  0
  3  4  1  0
  4  5  2  0
  5  6  1  0
  6  7  1  0
  7  8  1  0
  8  9  2  0
  8 10  1  0
 10 11  2  0
 11 12  1  0
 12 13  2  0
 13 14  1  0
 14 15  1  0
 15 16  2  0
 15 17  2  0
 15 18  1  0
 18 19  1  0
 19 20  1  0
 20 21  1  0
 21 22  1  0
 14 23  2  0
  5 24  1  0
 24 25  2  0
 25  2  1  0
 23 10  1  0
 22 18  1  0
M  END
>  <Title>  (125) 
idAAEUgen4

$$$$

     RDKit          2D

 24 26  0  0  0  0  0  0  0  0999 V2000
    3.0000    0.0000    0.0000 C   0  0  0  0  0  0  0  0  0  0  0  0
    1.5000    0.0000    0.0000 C   0  0  0  0  0  0  0  0  0  0  0  0
    0.7500   -1.2990    0.0000 C   0  0  0  0  0  0  0  0  0  0  0  0
   -0.7500   -1.2990    0.0000 C   0  0  0  0  0  0  0  0  0  0  0  0
   -1.5000    0.0000    0.0000 C   0  0  0  0  0  0  0  0  0  0  0  0
   -3.0000    0.0000    0.0000 N   0  0  0  0  0  0  0  0  0  0  0  0
   -3.7500    1.2990    0.0000 C   0  0  0  0  0  0  0  0  0  0  0  0
   -3.0000    2.5981    0.0000 O   0  0  0  0  0  0  0  0  0  0  0  0
   -5.2500    1.2990    0.0000 C   0  0  0  0  0  0  0  0  0  0  0  0
   -6.0000    2.5981    0.0000 C   0  0  0  0  0  0  0  0  0  0  0  0
   -5.2500    3.8971    0.0000 C   0  0  0  0  0  0  0  0  0  0  0  0
   -6.0000    5.1962    0.0000 C   0  0  0  0  0  0  0  0  0  0  0  0
   -7.5000    5.1962    0.0000 C   0  0  0  0  0  0  0  0  0  0  0  0
   -8.2500    6.4952    0.0000 N   0  0  0  0  0  0  0  0  0  0  0  0
   -7.5000    7.7942    0.0000 C   0  0  0  0  0  0  0  0  0  0  0  0
   -6.0000    7.7942    0.0000 O   0  0  0  0  0  0  0  0  0  0  0  0
   -8.2500    9.0933    0.0000 C   0  0  0  0  0  0  0  0  0  0  0  0
   -7.8618   10.5422    0.0000 C   0  0  0  0  0  0  0  0  0  0  0  0
   -9.3107   10.9304    0.0000 C   0  0  0  0  0  0  0  0  0  0  0  0
   -9.6989    9.4815    0.0000 C   0  0  0  0  0  0  0  0  0  0  0  0
   -8.2500    3.8971    0.0000 C   0  0  0  0  0  0  0  0  0  0  0  0
   -7.5000    2.5981    0.0000 C   0  0  0  0  0  0  0  0  0  0  0  0
   -0.7500    1.2990    0.0000 C   0  0  0  0  0  0  0  0  0  0  0  0
    0.7500    1.2990    0.0000 C   0  0  0  0  0  0  0  0  0  0  0  0
  1  2  1  0
  2  3  2  0
  3  4  1  0
  4  5  2  0
  5  6  1  0
  6  7  1  0
  7  8  2  0
  7  9  1  0
  9 10  1  0
 10 11  2  0
 11 12  1  0
 12 13  2  0
 13 14  1  0
 14 15  1  0
 15 16  2  0
 15 17  1  0
 17 18  1  0
 18 19  1  0
 19 20  1  0
 13 21  1  0
 21 22  2  0
  5 23  1  0
 23 24  2  0
 24  2  1  0
 22 10  1  0
 20 17  1  0
M  END
>  <Title>  (126) 
idAAEVgen4

$$$$

     RDKit          2D

 21 23  0  0  0  0  0  0  0  0999 V2000
    2.8273  -10.8595    0.0000 C   0  0  0  0  0  0  0  0  0  0  0  0
    3.2909   -9.4329    0.0000 C   0  0  0  0  0  0  0  0  0  0  0  0
    4.7174   -8.9694    0.0000 C   0  0  0  0  0  0  0  0  0  0  0  0
    4.7174   -7.4694    0.0000 C   0  0  0  0  0  0  0  0  0  0  0  0
    5.9310   -6.5877    0.0000 C   0  0  0  0  0  0  0  0  0  0  0  0
    3.2909   -7.0059    0.0000 N   0  0  0  0  0  0  0  0  0  0  0  0
    2.8273   -5.5793    0.0000 C   0  0  0  0  0  0  0  0  0  0  0  0
    1.3601   -5.2674    0.0000 C   0  0  0  0  0  0  0  0  0  0  0  0
    0.2454   -6.2711    0.0000 C   0  0  0  0  0  0  0  0  0  0  0  0
   -1.0537   -5.5211    0.0000 C   0  0  0  0  0  0  0  0  0  0  0  0
   -0.7418   -4.0539    0.0000 C   0  0  0  0  0  0  0  0  0  0  0  0
    0.7500   -3.8971    0.0000 N   0  0  0  0  0  0  0  0  0  0  0  0
    1.5000   -2.5981    0.0000 C   0  0  0  0  0  0  0  0  0  0  0  0
    3.0000   -2.5981    0.0000 O   0  0  0  0  0  0  0  0  0  0  0  0
    0.7500   -1.2990    0.0000 C   0  0  0  0  0  0  0  0  0  0  0  0
    1.5000    0.0000    0.0000 C   0  0  0  0  0  0  0  0  0  0  0  0
    0.7500    1.2990    0.0000 C   0  0  0  0  0  0  0  0  0  0  0  0
   -0.7500    1.2990    0.0000 C   0  0  0  0  0  0  0  0  0  0  0  0
   -1.5000    0.0000    0.0000 C   0  0  0  0  0  0  0  0  0  0  0  0
   -0.7500   -1.2990    0.0000 C   0  0  0  0  0  0  0  0  0  0  0  0
    2.4092   -8.2194    0.0000 N   0  0  0  0  0  0  0  0  0  0  0  0
  1  2  1  0
  2  3  1  0
  3  4  2  0
  4  5  1  0
  4  6  1  0
  6  7  1  0
  7  8  1  0
  8  9  1  0
  9 10  1  0
 10 11  1  0
 11 12  1  0
 12 13  1  0
 13 14  2  0
 13 15  1  0
 15 16  2  0
 16 17  1  0
 17 18  2  0
 18 19  1  0
 19 20  2  0
  6 21  1  0
 21  2  2  0
 12  8  1  0
 20 15  1  0
M  END
>  <Title>  (127) 
idAAEWgen4

$$$$

     RDKit          2D

 45 48  0  0  0  0  0  0  0  0999 V2000
    6.7500   -6.4952    0.0000 C   0  0  0  0  0  0  0  0  0  0  0  0
    6.0000   -5.1962    0.0000 C   0  0  0  0  0  0  0  0  0  0  0  0
    6.7500   -3.8971    0.0000 C   0  0  0  0  0  0  0  0  0  0  0  0
    4.5000   -5.1962    0.0000 C   0  0  0  0  0  0  0  0  0  0  0  0
    3.7500   -3.8971    0.0000 C   0  0  0  0  0  0  0  0  0  0  0  0
    2.2500   -3.8971    0.0000 N   0  0  0  0  0  0  0  0  0  0  0  0
    1.5000   -2.5981    0.0000 S   0  0  0  0  0  0  0  0  0  0  0  0
    0.2010   -3.3481    0.0000 O   0  0  0  0  0  0  0  0  0  0  0  0
    2.7990   -1.8481    0.0000 O   0  0  0  0  0  0  0  0  0  0  0  0
    0.7500   -1.2990    0.0000 C   0  0  0  0  0  0  0  0  0  0  0  0
    1.5000    0.0000    0.0000 C   0  0  0  0  0  0  0  0  0  0  0  0
    0.7500    1.2990    0.0000 C   0  0  0  0  0  0  0  0  0  0  0  0
   -0.7500    1.2990    0.0000 C   0  0  0  0  0  0  0  0  0  0  0  0
   -1.5000    0.0000    0.0000 C   0  0  0  0  0  0  0  0  0  0  0  0
   -0.7500   -1.2990    0.0000 C   0  0  0  0  0  0  0  0  0  0  0  0
    4.5000   -2.5981    0.0000 C   0  0  0  0  0  0  0  0  0  0  0  0
    3.7500   -1.2990    0.0000 O   0  0  0  0  0  0  0  0  0  0  0  0
    6.0000   -2.5981    0.0000 N   0  0  0  0  0  0  0  0  0  0  0  0
    6.7500   -1.2990    0.0000 C   0  0  0  0  0  0  0  0  0  0  0  0
    8.2500   -1.2990    0.0000 C   0  0  0  0  0  0  0  0  0  0  0  0
    9.0000   -0.0000    0.0000 C   0  0  0  0  0  0  0  0  0  0  0  0
   10.5000   -0.0000    0.0000 C   0  0  0  0  0  0  0  0  0  0  0  0
   11.2500    1.2990    0.0000 C   0  0  0  0  0  0  0  0  0  0  0  0
   10.5000    2.5981    0.0000 C   0  0  0  0  0  0  0  0  0  0  0  0
    9.0000    2.5981    0.0000 C   0  0  0  0  0  0  0  0  0  0  0  0
    8.2500    1.2990    0.0000 C   0  0  0  0  0  0  0  0  0  0  0  0
    6.0000   -0.0000    0.0000 C   0  0  0  0  0  0  0  0  0  0  0  0
    4.5000   -0.0000    0.0000 O   0  0  0  0  0  0  0  0  0  0  0  0
    6.7500    1.2990    0.0000 N   0  0  0  0  0  0  0  0  0  0  0  0
    6.0000    2.5981    0.0000 C   0  0  0  0  0  0  0  0  0  0  0  0
    6.7500    3.8971    0.0000 C   0  0  0  0  0  0  0  0  0  0  0  0
    6.0000    5.1962    0.0000 C   0  0  0  0  0  0  0  0  0  0  0  0
    6.7500    6.4952    0.0000 C   0  0  0  0  0  0  0  0  0  0  0  0
    6.0000    7.7942    0.0000 C   0  0  0  0  0  0  0  0  0  0  0  0
    4.5000    7.7942    0.0000 C   0  0  0  0  0  0  0  0  0  0  0  0
    3.7500    6.4952    0.0000 C   0  0  0  0  0  0  0  0  0  0  0  0
    4.5000    5.1962    0.0000 C   0  0  0  0  0  0  0  0  0  0  0  0
    4.5000    2.5981    0.0000 C   0  0  0  0  0  0  0  0  0  0  0  0
    3.7500    1.2990    0.0000 O   0  0  0  0  0  0  0  0  0  0  0  0
    3.7500    3.8971    0.0000 N   0  0  0  0  0  0  0  0  0  0  0  0
    2.2500    3.8971    0.0000 C   0  0  0  0  0  0  0  0  0  0  0  0
    1.3683    2.6836    0.0000 C   0  0  0  0  0  0  0  0  0  0  0  0
   -0.0583    3.1471    0.0000 C   0  0  0  0  0  0  0  0  0  0  0  0
   -0.0583    4.6471    0.0000 C   0  0  0  0  0  0  0  0  0  0  0  0
    1.3683    5.1106    0.0000 C   0  0  0  0  0  0  0  0  0  0  0  0
  1  2  1  0
  2  3  1  0
  2  4  1  0
  4  5  1  0
  5  6  1  0
  6  7  1  0
  7  8  2  0
  7  9  2  0
  7 10  1  0
 10 11  2  0
 11 12  1  0
 12 13  2  0
 13 14  1  0
 14 15  2  0
  5 16  1  0
 16 17  2  0
 16 18  1  0
 18 19  1  0
 19 20  1  0
 20 21  1  0
 21 22  2  0
 22 23  1  0
 23 24  2  0
 24 25  1  0
 25 26  2  0
 19 27  1  0
 27 28  2  0
 27 29  1  0
 29 30  1  0
 30 31  1  0
 31 32  1  0
 32 33  2  0
 33 34  1  0
 34 35  2  0
 35 36  1  0
 36 37  2  0
 30 38  1  0
 38 39  2  0
 38 40  1  0
 40 41  1  0
 41 42  1  0
 42 43  1  0
 43 44  1  0
 44 45  1  0
 15 10  1  0
 26 21  1  0
 37 32  1  0
 45 41  1  0
M  END
>  <Title>  (128) 
idAAEXgen4

$$$$

     RDKit          2D

 54 59  0  0  0  0  0  0  0  0999 V2000
    1.0860   12.3558    0.0000 C   0  0  0  0  0  0  0  0  0  0  0  0
    0.3360   11.0568    0.0000 C   0  0  0  0  0  0  0  0  0  0  0  0
    1.0860    9.7578    0.0000 C   0  0  0  0  0  0  0  0  0  0  0  0
   -1.1640   11.0568    0.0000 C   0  0  0  0  0  0  0  0  0  0  0  0
   -1.9140    9.7578    0.0000 N   0  0  0  0  0  0  0  0  0  0  0  0
   -3.4140    9.7578    0.0000 C   0  0  0  0  0  0  0  0  0  0  0  0
   -4.1640    8.4587    0.0000 C   0  0  0  0  0  0  0  0  0  0  0  0
   -3.4140    7.1597    0.0000 O   0  0  0  0  0  0  0  0  0  0  0  0
   -5.6640    8.4587    0.0000 C   0  0  0  0  0  0  0  0  0  0  0  0
   -6.4140    9.7578    0.0000 C   0  0  0  0  0  0  0  0  0  0  0  0
   -5.6640   11.0568    0.0000 C   0  0  0  0  0  0  0  0  0  0  0  0
   -4.1640   11.0568    0.0000 C   0  0  0  0  0  0  0  0  0  0  0  0
   -3.4140   12.3558    0.0000 C   0  0  0  0  0  0  0  0  0  0  0  0
   -4.1640   13.6549    0.0000 C   0  0  0  0  0  0  0  0  0  0  0  0
   -5.6640   13.6549    0.0000 C   0  0  0  0  0  0  0  0  0  0  0  0
   -6.4140   12.3558    0.0000 C   0  0  0  0  0  0  0  0  0  0  0  0
   -6.4140    7.1597    0.0000 N   0  0  0  0  0  0  0  0  0  0  0  0
   -5.6640    5.8606    0.0000 C   0  0  0  0  0  0  0  0  0  0  0  0
   -4.1640    5.8606    0.0000 O   0  0  0  0  0  0  0  0  0  0  0  0
   -6.4140    4.5616    0.0000 C   0  0  0  0  0  0  0  0  0  0  0  0
   -7.9140    4.5616    0.0000 C   0  0  0  0  0  0  0  0  0  0  0  0
   -8.6640    5.8606    0.0000 C   0  0  0  0  0  0  0  0  0  0  0  0
   -7.9140    7.1597    0.0000 C   0  0  0  0  0  0  0  0  0  0  0  0
   -8.6640    8.4587    0.0000 C   0  0  0  0  0  0  0  0  0  0  0  0
  -10.1640    8.4587    0.0000 C   0  0  0  0  0  0  0  0  0  0  0  0
  -10.9140    7.1597    0.0000 C   0  0  0  0  0  0  0  0  0  0  0  0
  -10.1640    5.8606    0.0000 C   0  0  0  0  0  0  0  0  0  0  0  0
   -5.6640    3.2626    0.0000 N   0  0  0  0  0  0  0  0  0  0  0  0
   -4.1640    3.2626    0.0000 C   0  0  0  0  0  0  0  0  0  0  0  0
   -3.4140    4.5616    0.0000 O   0  0  0  0  0  0  0  0  0  0  0  0
   -3.4140    1.9635    0.0000 O   0  0  0  0  0  0  0  0  0  0  0  0
   -1.9140    1.9635    0.0000 C   0  0  0  0  0  0  0  0  0  0  0  0
   -1.0323    3.1771    0.0000 C   0  0  0  0  0  0  0  0  0  0  0  0
    0.3943    2.7135    0.0000 O   0  0  0  0  0  0  0  0  0  0  0  0
    0.3943    1.2135    0.0000 C   0  0  0  0  0  0  0  0  0  0  0  0
    1.2760    0.0000    0.0000 O   0  0  0  0  0  0  0  0  0  0  0  0
    0.3943   -1.2135    0.0000 C   0  0  0  0  0  0  0  0  0  0  0  0
   -1.0323   -0.7500    0.0000 C   0  0  0  0  0  0  0  0  0  0  0  0
   -1.0323    0.7500    0.0000 C   0  0  0  0  0  0  0  0  0  0  0  0
   -1.1640    8.4587    0.0000 S   0  0  0  0  0  0  0  0  0  0  0  0
   -2.4630    7.7087    0.0000 O   0  0  0  0  0  0  0  0  0  0  0  0
    0.1351    9.2087    0.0000 O   0  0  0  0  0  0  0  0  0  0  0  0
   -0.4140    7.1597    0.0000 C   0  0  0  0  0  0  0  0  0  0  0  0
   -1.1640    5.8606    0.0000 C   0  0  0  0  0  0  0  0  0  0  0  0
   -0.4140    4.5616    0.0000 C   0  0  0  0  0  0  0  0  0  0  0  0
    1.0860    4.5616    0.0000 C   0  0  0  0  0  0  0  0  0  0  0  0
    1.8360    3.2626    0.0000 C   0  0  0  0  0  0  0  0  0  0  0  0
    1.0860    1.9635    0.0000 C   0  0  0  0  0  0  0  0  0  0  0  0
    1.8360    0.6645    0.0000 C   0  0  0  0  0  0  0  0  0  0  0  0
    3.3360    0.6645    0.0000 C   0  0  0  0  0  0  0  0  0  0  0  0
    4.0860    1.9635    0.0000 C   0  0  0  0  0  0  0  0  0  0  0  0
    3.3360    3.2626    0.0000 N   0  0  0  0  0  0  0  0  0  0  0  0
    1.8360    5.8606    0.0000 C   0  0  0  0  0  0  0  0  0  0  0  0
    1.0860    7.1597    0.0000 C   0  0  0  0  0  0  0  0  0  0  0  0
  1  2  1  0
  2  3  1  0
  2  4  1  0
  4  5  1  0
  5  6  1  0
  6  7  1  0
  7  8  1  0
  7  9  1  0
  9 10  1  0
 10 11  1  0
 11 12  2  0
 12 13  1  0
 13 14  2  0
 14 15  1  0
 15 16  2  0
  9 17  1  0
 17 18  1  0
 18 19  2  0
 18 20  1  0
 20 21  1  0
 21 22  1  0
 22 23  2  0
 23 24  1  0
 24 25  2  0
 25 26  1  0
 26 27  2  0
 20 28  1  0
 28 29  1  0
 29 30  2  0
 29 31  1  0
 31 32  1  0
 32 33  1  0
 33 34  1  0
 34 35  1  0
 35 36  1  0
 36 37  1  0
 37 38  1  0
 38 39  1  0
  5 40  1  0
 40 41  2  0
 40 42  2  0
 40 43  1  0
 43 44  2  0
 44 45  1  0
 45 46  2  0
 46 47  1  0
 47 48  2  0
 48 49  1  0
 49 50  2  0
 50 51  1  0
 51 52  2  0
 46 53  1  0
 53 54  2  0
 16 11  1  0
 27 22  1  0
 39 32  1  0
 54 43  1  0
 39 35  1  0
 52 47  1  0
M  END
>  <Title>  (129) 
idAAEYgen4

$$$$

     RDKit          2D

 68 73  0  0  0  0  0  0  0  0999 V2000
   17.3291    6.2521    0.0000 C   0  0  0  0  0  0  0  0  0  0  0  0
   17.4859    7.7439    0.0000 C   0  0  0  0  0  0  0  0  0  0  0  0
   16.2724    8.6256    0.0000 C   0  0  0  0  0  0  0  0  0  0  0  0
   16.4292   10.1174    0.0000 C   0  0  0  0  0  0  0  0  0  0  0  0
   15.2157   10.9990    0.0000 O   0  0  0  0  0  0  0  0  0  0  0  0
   15.3725   12.4908    0.0000 C   0  0  0  0  0  0  0  0  0  0  0  0
   16.7428   13.1009    0.0000 C   0  0  0  0  0  0  0  0  0  0  0  0
   16.8996   14.5927    0.0000 C   0  0  0  0  0  0  0  0  0  0  0  0
   15.6860   15.4744    0.0000 C   0  0  0  0  0  0  0  0  0  0  0  0
   14.3157   14.8643    0.0000 C   0  0  0  0  0  0  0  0  0  0  0  0
   14.1589   13.3725    0.0000 C   0  0  0  0  0  0  0  0  0  0  0  0
   12.7886   12.7624    0.0000 C   0  0  0  0  0  0  0  0  0  0  0  0
   12.6318   11.2706    0.0000 N   0  0  0  0  0  0  0  0  0  0  0  0
   11.2615   10.6605    0.0000 C   0  0  0  0  0  0  0  0  0  0  0  0
   10.0480   11.5422    0.0000 O   0  0  0  0  0  0  0  0  0  0  0  0
   11.1047    9.1687    0.0000 C   0  0  0  0  0  0  0  0  0  0  0  0
    9.7344    8.5586    0.0000 C   0  0  0  0  0  0  0  0  0  0  0  0
    8.4354    9.3086    0.0000 C   0  0  0  0  0  0  0  0  0  0  0  0
    7.3206    8.3049    0.0000 C   0  0  0  0  0  0  0  0  0  0  0  0
    7.9307    6.9346    0.0000 C   0  0  0  0  0  0  0  0  0  0  0  0
    9.4225    7.0914    0.0000 C   0  0  0  0  0  0  0  0  0  0  0  0
   10.4262    5.9767    0.0000 C   0  0  0  0  0  0  0  0  0  0  0  0
   11.8934    6.2885    0.0000 O   0  0  0  0  0  0  0  0  0  0  0  0
    9.9627    4.5501    0.0000 N   0  0  0  0  0  0  0  0  0  0  0  0
   10.9664    3.4354    0.0000 C   0  0  0  0  0  0  0  0  0  0  0  0
   12.4336    3.7472    0.0000 C   0  0  0  0  0  0  0  0  0  0  0  0
   13.4373    2.6325    0.0000 C   0  0  0  0  0  0  0  0  0  0  0  0
   12.9738    1.2059    0.0000 C   0  0  0  0  0  0  0  0  0  0  0  0
   13.9775    0.0912    0.0000 C   0  0  0  0  0  0  0  0  0  0  0  0
   15.4447    0.4031    0.0000 C   0  0  0  0  0  0  0  0  0  0  0  0
   15.9082    1.8297    0.0000 C   0  0  0  0  0  0  0  0  0  0  0  0
   14.9045    2.9444    0.0000 C   0  0  0  0  0  0  0  0  0  0  0  0
   10.5029    2.0088    0.0000 C   0  0  0  0  0  0  0  0  0  0  0  0
    9.0356    1.6969    0.0000 O   0  0  0  0  0  0  0  0  0  0  0  0
   11.5066    0.8941    0.0000 N   0  0  0  0  0  0  0  0  0  0  0  0
   11.0430   -0.5325    0.0000 C   0  0  0  0  0  0  0  0  0  0  0  0
    9.5758   -0.8444    0.0000 C   0  0  0  0  0  0  0  0  0  0  0  0
    9.1123   -2.2710    0.0000 C   0  0  0  0  0  0  0  0  0  0  0  0
   10.1160   -3.3857    0.0000 C   0  0  0  0  0  0  0  0  0  0  0  0
    9.6525   -4.8123    0.0000 C   0  0  0  0  0  0  0  0  0  0  0  0
    8.1852   -5.1241    0.0000 C   0  0  0  0  0  0  0  0  0  0  0  0
    7.1815   -4.0094    0.0000 C   0  0  0  0  0  0  0  0  0  0  0  0
    7.6451   -2.5828    0.0000 C   0  0  0  0  0  0  0  0  0  0  0  0
   12.0467   -1.6472    0.0000 C   0  0  0  0  0  0  0  0  0  0  0  0
   11.5832   -3.0738    0.0000 O   0  0  0  0  0  0  0  0  0  0  0  0
   13.5140   -1.3354    0.0000 N   0  0  0  0  0  0  0  0  0  0  0  0
   14.5177   -2.4501    0.0000 C   0  0  0  0  0  0  0  0  0  0  0  0
   15.9849   -2.1382    0.0000 C   0  0  0  0  0  0  0  0  0  0  0  0
   16.9886   -3.2529    0.0000 C   0  0  0  0  0  0  0  0  0  0  0  0
   16.5250   -4.6795    0.0000 C   0  0  0  0  0  0  0  0  0  0  0  0
   17.5287   -5.7942    0.0000 C   0  0  0  0  0  0  0  0  0  0  0  0
   18.9960   -5.4824    0.0000 C   0  0  0  0  0  0  0  0  0  0  0  0
   19.4595   -4.0558    0.0000 C   0  0  0  0  0  0  0  0  0  0  0  0
   18.4558   -2.9411    0.0000 C   0  0  0  0  0  0  0  0  0  0  0  0
   14.0541   -3.8767    0.0000 C   0  0  0  0  0  0  0  0  0  0  0  0
   15.0578   -4.9914    0.0000 O   0  0  0  0  0  0  0  0  0  0  0  0
   12.5869   -4.1885    0.0000 N   0  0  0  0  0  0  0  0  0  0  0  0
   12.1234   -5.6151    0.0000 C   0  0  0  0  0  0  0  0  0  0  0  0
   10.6562   -5.9270    0.0000 C   0  0  0  0  0  0  0  0  0  0  0  0
   10.1926   -7.3536    0.0000 C   0  0  0  0  0  0  0  0  0  0  0  0
    8.7254   -7.6654    0.0000 C   0  0  0  0  0  0  0  0  0  0  0  0
    8.2619   -9.0920    0.0000 C   0  0  0  0  0  0  0  0  0  0  0  0
    9.2656  -10.2067    0.0000 C   0  0  0  0  0  0  0  0  0  0  0  0
   10.7328   -9.8949    0.0000 C   0  0  0  0  0  0  0  0  0  0  0  0
   11.1963   -8.4683    0.0000 C   0  0  0  0  0  0  0  0  0  0  0  0
   13.1271   -6.7298    0.0000 C   0  0  0  0  0  0  0  0  0  0  0  0
   14.5943   -6.4180    0.0000 O   0  0  0  0  0  0  0  0  0  0  0  0
   12.6636   -8.1564    0.0000 O   0  0  0  0  0  0  0  0  0  0  0  0
  1  2  1  0
  2  3  1  0
  3  4  1  0
  4  5  1  0
  5  6  1  0
  6  7  2  0
  7  8  1  0
  8  9  2  0
  9 10  1  0
 10 11  2  0
 11 12  1  0
 12 13  1  0
 13 14  1  0
 14 15  2  0
 14 16  1  0
 16 17  1  0
 17 18  1  0
 18 19  1  0
 19 20  1  0
 20 21  1  0
 21 22  1  0
 22 23  2  0
 22 24  1  0
 24 25  1  0
 25 26  1  0
 26 27  1  0
 27 28  2  0
 28 29  1  0
 29 30  2  0
 30 31  1  0
 31 32  2  0
 25 33  1  0
 33 34  2  0
 33 35  1  0
 35 36  1  0
 36 37  1  0
 37 38  1  0
 38 39  2  0
 39 40  1  0
 40 41  2  0
 41 42  1  0
 42 43  2  0
 36 44  1  0
 44 45  2  0
 44 46  1  0
 46 47  1  0
 47 48  1  0
 48 49  1  0
 49 50  2  0
 50 51  1  0
 51 52  2  0
 52 53  1  0
 53 54  2  0
 47 55  1  0
 55 56  2  0
 55 57  1  0
 57 58  1  0
 58 59  1  0
 59 60  1  0
 60 61  2  0
 61 62  1  0
 62 63  2  0
 63 64  1  0
 64 65  2  0
 58 66  1  0
 66 67  2  0
 66 68  1  0
 11  6  1  0
 21 17  1  0
 32 27  1  0
 43 38  1  0
 54 49  1  0
 65 60  1  0
M  END
>  <Title>  (130) 
idAAEZgen4

$$$$

     RDKit          2D

 25 27  0  0  0  0  0  0  0  0999 V2000
    3.0000    0.0000    0.0000 C   0  0  0  0  0  0  0  0  0  0  0  0
    1.5000    0.0000    0.0000 C   0  0  0  0  0  0  0  0  0  0  0  0
    0.7500   -1.2990    0.0000 C   0  0  0  0  0  0  0  0  0  0  0  0
   -0.7500   -1.2990    0.0000 C   0  0  0  0  0  0  0  0  0  0  0  0
   -1.5000    0.0000    0.0000 C   0  0  0  0  0  0  0  0  0  0  0  0
   -3.0000    0.0000    0.0000 N   0  0  0  0  0  0  0  0  0  0  0  0
   -3.7500   -1.2990    0.0000 C   0  0  0  0  0  0  0  0  0  0  0  0
   -3.0000   -2.5981    0.0000 O   0  0  0  0  0  0  0  0  0  0  0  0
   -5.2500   -1.2990    0.0000 C   0  0  0  0  0  0  0  0  0  0  0  0
   -6.0000    0.0000    0.0000 C   0  0  0  0  0  0  0  0  0  0  0  0
   -7.5000    0.0000    0.0000 C   0  0  0  0  0  0  0  0  0  0  0  0
   -8.2500   -1.2990    0.0000 C   0  0  0  0  0  0  0  0  0  0  0  0
   -7.5000   -2.5981    0.0000 C   0  0  0  0  0  0  0  0  0  0  0  0
   -8.2500   -3.8971    0.0000 S   0  0  0  0  0  0  0  0  0  0  0  0
   -9.5490   -3.1471    0.0000 O   0  0  0  0  0  0  0  0  0  0  0  0
   -6.9510   -4.6471    0.0000 O   0  0  0  0  0  0  0  0  0  0  0  0
   -9.0000   -5.1962    0.0000 N   0  0  0  0  0  0  0  0  0  0  0  0
   -8.3899   -6.5665    0.0000 C   0  0  0  0  0  0  0  0  0  0  0  0
   -9.5046   -7.5702    0.0000 C   0  0  0  0  0  0  0  0  0  0  0  0
  -10.8037   -6.8202    0.0000 C   0  0  0  0  0  0  0  0  0  0  0  0
  -10.4918   -5.3529    0.0000 C   0  0  0  0  0  0  0  0  0  0  0  0
   -6.0000   -2.5981    0.0000 C   0  0  0  0  0  0  0  0  0  0  0  0
   -0.7500    1.2990    0.0000 C   0  0  0  0  0  0  0  0  0  0  0  0
   -1.5000    2.5981    0.0000 C   0  0  0  0  0  0  0  0  0  0  0  0
    0.7500    1.2990    0.0000 C   0  0  0  0  0  0  0  0  0  0  0  0
  1  2  1  0
  2  3  2  0
  3  4  1  0
  4  5  2  0
  5  6  1  0
  6  7  1  0
  7  8  2  0
  7  9  1  0
  9 10  2  0
 10 11  1  0
 11 12  2  0
 12 13  1  0
 13 14  1  0
 14 15  2  0
 14 16  2  0
 14 17  1  0
 17 18  1  0
 18 19  1  0
 19 20  1  0
 20 21  1  0
 13 22  2  0
  5 23  1  0
 23 24  1  0
 23 25  2  0
 25  2  1  0
 22  9  1  0
 21 17  1  0
M  END
>  <Title>  (131) 
idAAFAgen4

$$$$

     RDKit          2D

 57 62  0  0  0  0  0  0  0  0999 V2000
    4.0442    0.9043    0.0000 O   0  0  0  0  0  0  0  0  0  0  0  0
    3.4962    2.3006    0.0000 C   0  0  0  0  0  0  0  0  0  0  0  0
    4.4315    3.4734    0.0000 N   0  0  0  0  0  0  0  0  0  0  0  0
    5.9147    3.2498    0.0000 C   0  0  0  0  0  0  0  0  0  0  0  0
    6.8499    4.4226    0.0000 C   0  0  0  0  0  0  0  0  0  0  0  0
    5.8574    5.5472    0.0000 C   0  0  0  0  0  0  0  0  0  0  0  0
    6.3351    6.9691    0.0000 C   0  0  0  0  0  0  0  0  0  0  0  0
    5.3426    8.0938    0.0000 C   0  0  0  0  0  0  0  0  0  0  0  0
    3.8724    7.7966    0.0000 C   0  0  0  0  0  0  0  0  0  0  0  0
    3.3946    6.3747    0.0000 C   0  0  0  0  0  0  0  0  0  0  0  0
    4.3872    5.2500    0.0000 C   0  0  0  0  0  0  0  0  0  0  0  0
    8.1299    5.2047    0.0000 C   0  0  0  0  0  0  0  0  0  0  0  0
    8.1673    3.7052    0.0000 C   0  0  0  0  0  0  0  0  0  0  0  0
    2.0130    2.5242    0.0000 N   0  0  0  0  0  0  0  0  0  0  0  0
    1.0777    1.3515    0.0000 C   0  0  0  0  0  0  0  0  0  0  0  0
    1.7286    0.0000    0.0000 C   0  0  0  0  0  0  0  0  0  0  0  0
    1.0777   -1.3515    0.0000 C   0  0  0  0  0  0  0  0  0  0  0  0
   -0.3846   -1.6852    0.0000 C   0  0  0  0  0  0  0  0  0  0  0  0
   -1.5574   -0.7500    0.0000 C   0  0  0  0  0  0  0  0  0  0  0  0
   -1.5574    0.7500    0.0000 C   0  0  0  0  0  0  0  0  0  0  0  0
   -0.3846    1.6852    0.0000 C   0  0  0  0  0  0  0  0  0  0  0  0
   -0.7184    3.1476    0.0000 C   0  0  0  0  0  0  0  0  0  0  0  0
   -2.1518    3.5898    0.0000 O   0  0  0  0  0  0  0  0  0  0  0  0
    0.3812    4.1679    0.0000 N   0  0  0  0  0  0  0  0  0  0  0  0
    0.0474    5.6303    0.0000 C   0  0  0  0  0  0  0  0  0  0  0  0
    1.1469    6.6505    0.0000 C   0  0  0  0  0  0  0  0  0  0  0  0
    0.8132    8.1129    0.0000 C   0  0  0  0  0  0  0  0  0  0  0  0
    1.9127    9.1332    0.0000 C   0  0  0  0  0  0  0  0  0  0  0  0
    1.5790   10.5956    0.0000 C   0  0  0  0  0  0  0  0  0  0  0  0
    0.1456   11.0377    0.0000 C   0  0  0  0  0  0  0  0  0  0  0  0
   -0.9540   10.0175    0.0000 C   0  0  0  0  0  0  0  0  0  0  0  0
   -0.6202    8.5551    0.0000 C   0  0  0  0  0  0  0  0  0  0  0  0
   -1.3860    6.0724    0.0000 C   0  0  0  0  0  0  0  0  0  0  0  0
   -2.4856    5.0522    0.0000 O   0  0  0  0  0  0  0  0  0  0  0  0
   -1.7198    7.5348    0.0000 N   0  0  0  0  0  0  0  0  0  0  0  0
   -3.1531    7.9769    0.0000 C   0  0  0  0  0  0  0  0  0  0  0  0
   -3.4869    9.4393    0.0000 C   0  0  0  0  0  0  0  0  0  0  0  0
   -4.9203    9.8815    0.0000 C   0  0  0  0  0  0  0  0  0  0  0  0
   -5.2541   11.3439    0.0000 C   0  0  0  0  0  0  0  0  0  0  0  0
   -6.6874   11.7860    0.0000 C   0  0  0  0  0  0  0  0  0  0  0  0
   -7.7870   10.7657    0.0000 C   0  0  0  0  0  0  0  0  0  0  0  0
   -7.4532    9.3033    0.0000 C   0  0  0  0  0  0  0  0  0  0  0  0
   -6.0198    8.8612    0.0000 C   0  0  0  0  0  0  0  0  0  0  0  0
   -4.2527    6.9567    0.0000 C   0  0  0  0  0  0  0  0  0  0  0  0
   -3.9189    5.4943    0.0000 O   0  0  0  0  0  0  0  0  0  0  0  0
   -5.6861    7.3988    0.0000 N   0  0  0  0  0  0  0  0  0  0  0  0
   -6.7856    6.3785    0.0000 C   0  0  0  0  0  0  0  0  0  0  0  0
   -8.2190    6.8207    0.0000 C   0  0  0  0  0  0  0  0  0  0  0  0
   -9.3186    5.8004    0.0000 C   0  0  0  0  0  0  0  0  0  0  0  0
  -10.7519    6.2426    0.0000 C   0  0  0  0  0  0  0  0  0  0  0  0
  -11.8515    5.2223    0.0000 C   0  0  0  0  0  0  0  0  0  0  0  0
  -11.5177    3.7599    0.0000 C   0  0  0  0  0  0  0  0  0  0  0  0
  -10.0844    3.3178    0.0000 C   0  0  0  0  0  0  0  0  0  0  0  0
   -8.9848    4.3380    0.0000 C   0  0  0  0  0  0  0  0  0  0  0  0
   -6.4519    4.9162    0.0000 C   0  0  0  0  0  0  0  0  0  0  0  0
   -5.0185    4.4740    0.0000 O   0  0  0  0  0  0  0  0  0  0  0  0
   -7.5514    3.8959    0.0000 O   0  0  0  0  0  0  0  0  0  0  0  0
  1  2  2  0
  2  3  1  0
  3  4  1  0
  4  5  1  0
  5  6  1  0
  6  7  2  0
  7  8  1  0
  8  9  2  0
  9 10  1  0
 10 11  2  0
  5 12  1  0
 12 13  1  0
  2 14  1  0
 14 15  1  0
 15 16  1  0
 16 17  1  0
 17 18  1  0
 18 19  1  0
 19 20  1  0
 20 21  1  0
 21 22  1  0
 22 23  2  0
 22 24  1  0
 24 25  1  0
 25 26  1  0
 26 27  1  0
 27 28  2  0
 28 29  1  0
 29 30  2  0
 30 31  1  0
 31 32  2  0
 25 33  1  0
 33 34  2  0
 33 35  1  0
 35 36  1  0
 36 37  1  0
 37 38  1  0
 38 39  2  0
 39 40  1  0
 40 41  2  0
 41 42  1  0
 42 43  2  0
 36 44  1  0
 44 45  2  0
 44 46  1  0
 46 47  1  0
 47 48  1  0
 48 49  1  0
 49 50  2  0
 50 51  1  0
 51 52  2  0
 52 53  1  0
 53 54  2  0
 47 55  1  0
 55 56  2  0
 55 57  1  0
 13  5  1  0
 21 15  1  0
 32 27  1  0
 43 38  1  0
 54 49  1  0
 11  6  1  0
M  END
>  <Title>  (132) 
idAAFBgen4

$$$$

     RDKit          2D

 55 59  0  0  0  0  0  0  0  0999 V2000
   -1.5000  -10.3923    0.0000 C   0  0  0  0  0  0  0  0  0  0  0  0
   -0.7500   -9.0933    0.0000 C   0  0  0  0  0  0  0  0  0  0  0  0
   -1.5000   -7.7942    0.0000 C   0  0  0  0  0  0  0  0  0  0  0  0
    0.7500   -9.0933    0.0000 C   0  0  0  0  0  0  0  0  0  0  0  0
    1.5000   -7.7942    0.0000 N   0  0  0  0  0  0  0  0  0  0  0  0
    0.7500   -6.4952    0.0000 C   0  0  0  0  0  0  0  0  0  0  0  0
    1.5000   -5.1962    0.0000 C   0  0  0  0  0  0  0  0  0  0  0  0
    3.0000   -5.1962    0.0000 O   0  0  0  0  0  0  0  0  0  0  0  0
    0.7500   -3.8971    0.0000 C   0  0  0  0  0  0  0  0  0  0  0  0
    1.5000   -2.5981    0.0000 C   0  0  0  0  0  0  0  0  0  0  0  0
    0.7500   -1.2990    0.0000 C   0  0  0  0  0  0  0  0  0  0  0  0
    1.5000    0.0000    0.0000 C   0  0  0  0  0  0  0  0  0  0  0  0
    0.7500    1.2990    0.0000 C   0  0  0  0  0  0  0  0  0  0  0  0
   -0.7500    1.2990    0.0000 C   0  0  0  0  0  0  0  0  0  0  0  0
   -1.5000    0.0000    0.0000 C   0  0  0  0  0  0  0  0  0  0  0  0
   -0.7500   -1.2990    0.0000 C   0  0  0  0  0  0  0  0  0  0  0  0
   -0.7500   -3.8971    0.0000 N   0  0  0  0  0  0  0  0  0  0  0  0
   -1.5000   -5.1962    0.0000 C   0  0  0  0  0  0  0  0  0  0  0  0
   -0.7500   -6.4952    0.0000 O   0  0  0  0  0  0  0  0  0  0  0  0
   -3.0000   -5.1962    0.0000 C   0  0  0  0  0  0  0  0  0  0  0  0
   -3.7500   -6.4952    0.0000 C   0  0  0  0  0  0  0  0  0  0  0  0
   -5.2500   -6.4952    0.0000 C   0  0  0  0  0  0  0  0  0  0  0  0
   -6.0000   -5.1962    0.0000 C   0  0  0  0  0  0  0  0  0  0  0  0
   -7.5000   -5.1962    0.0000 C   0  0  0  0  0  0  0  0  0  0  0  0
   -8.2500   -6.4952    0.0000 C   0  0  0  0  0  0  0  0  0  0  0  0
   -7.5000   -7.7942    0.0000 C   0  0  0  0  0  0  0  0  0  0  0  0
   -6.0000   -7.7942    0.0000 C   0  0  0  0  0  0  0  0  0  0  0  0
   -3.7500   -3.8971    0.0000 N   0  0  0  0  0  0  0  0  0  0  0  0
   -3.0000   -2.5981    0.0000 C   0  0  0  0  0  0  0  0  0  0  0  0
   -1.5000   -2.5981    0.0000 O   0  0  0  0  0  0  0  0  0  0  0  0
   -3.7500   -1.2990    0.0000 C   0  0  0  0  0  0  0  0  0  0  0  0
   -5.2500   -1.2990    0.0000 C   0  0  0  0  0  0  0  0  0  0  0  0
   -6.0000    0.0000    0.0000 C   0  0  0  0  0  0  0  0  0  0  0  0
   -5.2500    1.2990    0.0000 C   0  0  0  0  0  0  0  0  0  0  0  0
   -3.7500    1.2990    0.0000 C   0  0  0  0  0  0  0  0  0  0  0  0
   -3.0000    0.0000    0.0000 C   0  0  0  0  0  0  0  0  0  0  0  0
    3.0000   -7.7942    0.0000 C   0  0  0  0  0  0  0  0  0  0  0  0
    3.7500   -6.4952    0.0000 O   0  0  0  0  0  0  0  0  0  0  0  0
    3.7500   -9.0933    0.0000 C   0  0  0  0  0  0  0  0  0  0  0  0
    3.0000  -10.3923    0.0000 C   0  0  0  0  0  0  0  0  0  0  0  0
    3.7500  -11.6913    0.0000 C   0  0  0  0  0  0  0  0  0  0  0  0
    5.2500  -11.6913    0.0000 C   0  0  0  0  0  0  0  0  0  0  0  0
    6.0000  -12.9904    0.0000 C   0  0  0  0  0  0  0  0  0  0  0  0
    5.2500  -14.2894    0.0000 C   0  0  0  0  0  0  0  0  0  0  0  0
    3.7500  -14.2894    0.0000 C   0  0  0  0  0  0  0  0  0  0  0  0
    3.0000  -12.9904    0.0000 C   0  0  0  0  0  0  0  0  0  0  0  0
    5.2500   -9.0933    0.0000 N   0  0  0  0  0  0  0  0  0  0  0  0
    6.0000   -7.7942    0.0000 C   0  0  0  0  0  0  0  0  0  0  0  0
    5.2500   -6.4952    0.0000 O   0  0  0  0  0  0  0  0  0  0  0  0
    7.5000   -7.7942    0.0000 C   0  0  0  0  0  0  0  0  0  0  0  0
    8.2500   -9.0933    0.0000 C   0  0  0  0  0  0  0  0  0  0  0  0
    9.7500   -9.0933    0.0000 C   0  0  0  0  0  0  0  0  0  0  0  0
   10.5000   -7.7942    0.0000 C   0  0  0  0  0  0  0  0  0  0  0  0
    9.7500   -6.4952    0.0000 C   0  0  0  0  0  0  0  0  0  0  0  0
    8.2500   -6.4952    0.0000 C   0  0  0  0  0  0  0  0  0  0  0  0
  1  2  1  0
  2  3  1  0
  2  4  1  0
  4  5  1  0
  5  6  1  0
  6  7  1  0
  7  8  1  0
  7  9  1  0
  9 10  1  0
 10 11  1  0
 11 12  2  0
 12 13  1  0
 13 14  2  0
 14 15  1  0
 15 16  2  0
  9 17  1  0
 17 18  1  0
 18 19  2  0
 18 20  1  0
 20 21  1  0
 21 22  1  0
 22 23  2  0
 23 24  1  0
 24 25  2  0
 25 26  1  0
 26 27  2  0
 20 28  1  0
 28 29  1  0
 29 30  2  0
 29 31  1  0
 31 32  2  0
 32 33  1  0
 33 34  2  0
 34 35  1  0
 35 36  2  0
  5 37  1  0
 37 38  2  0
 37 39  1  0
 39 40  1  0
 40 41  1  0
 41 42  2  0
 42 43  1  0
 43 44  2  0
 44 45  1  0
 45 46  2  0
 39 47  1  0
 47 48  1  0
 48 49  2  0
 48 50  1  0
 50 51  2  0
 51 52  1  0
 52 53  2  0
 53 54  1  0
 54 55  2  0
 16 11  1  0
 27 22  1  0
 36 31  1  0
 46 41  1  0
 55 50  1  0
M  END
>  <Title>  (133) 
idAAFCgen4

$$$$

     RDKit          2D

 71 77  0  0  0  0  0  0  0  0999 V2000
   -1.0407    5.2197    0.0000 C   0  0  0  0  0  0  0  0  0  0  0  0
   -1.9140    4.5616    0.0000 C   0  0  0  0  0  0  0  0  0  0  0  0
   -2.9205    4.1344    0.0000 C   0  0  0  0  0  0  0  0  0  0  0  0
   -2.6640    5.8606    0.0000 C   0  0  0  0  0  0  0  0  0  0  0  0
   -1.1640    3.2626    0.0000 C   0  0  0  0  0  0  0  0  0  0  0  0
    0.3360    3.2626    0.0000 C   0  0  0  0  0  0  0  0  0  0  0  0
    1.0860    4.5616    0.0000 N   0  0  0  0  0  0  0  0  0  0  0  0
    0.3360    5.8606    0.0000 C   0  0  0  0  0  0  0  0  0  0  0  0
   -0.7493    5.9939    0.0000 O   0  0  0  0  0  0  0  0  0  0  0  0
    1.0860    7.1597    0.0000 C   0  0  0  0  0  0  0  0  0  0  0  0
    2.5860    7.1597    0.0000 C   0  0  0  0  0  0  0  0  0  0  0  0
    3.3360    5.8606    0.0000 C   0  0  0  0  0  0  0  0  0  0  0  0
    2.5860    4.5616    0.0000 C   0  0  0  0  0  0  0  0  0  0  0  0
    3.3360    3.2626    0.0000 C   0  0  0  0  0  0  0  0  0  0  0  0
    4.8360    3.2626    0.0000 C   0  0  0  0  0  0  0  0  0  0  0  0
    5.5860    4.5616    0.0000 C   0  0  0  0  0  0  0  0  0  0  0  0
    4.8360    5.8606    0.0000 C   0  0  0  0  0  0  0  0  0  0  0  0
    0.3360    8.4587    0.0000 N   0  0  0  0  0  0  0  0  0  0  0  0
   -1.1640    8.4587    0.0000 C   0  0  0  0  0  0  0  0  0  0  0  0
   -1.9140    7.1597    0.0000 O   0  0  0  0  0  0  0  0  0  0  0  0
   -1.9140    9.7578    0.0000 C   0  0  0  0  0  0  0  0  0  0  0  0
   -1.1640   11.0568    0.0000 C   0  0  0  0  0  0  0  0  0  0  0  0
    0.3360   11.0568    0.0000 C   0  0  0  0  0  0  0  0  0  0  0  0
    1.0860    9.7578    0.0000 C   0  0  0  0  0  0  0  0  0  0  0  0
    2.5860    9.7578    0.0000 C   0  0  0  0  0  0  0  0  0  0  0  0
    3.3360   11.0568    0.0000 C   0  0  0  0  0  0  0  0  0  0  0  0
    2.5860   12.3558    0.0000 C   0  0  0  0  0  0  0  0  0  0  0  0
    1.0860   12.3558    0.0000 C   0  0  0  0  0  0  0  0  0  0  0  0
   -3.4140    9.7578    0.0000 N   0  0  0  0  0  0  0  0  0  0  0  0
   -4.1640    8.4587    0.0000 C   0  0  0  0  0  0  0  0  0  0  0  0
   -3.4140    7.1597    0.0000 O   0  0  0  0  0  0  0  0  0  0  0  0
   -5.6640    8.4587    0.0000 C   0  0  0  0  0  0  0  0  0  0  0  0
   -6.4140    9.7578    0.0000 C   0  0  0  0  0  0  0  0  0  0  0  0
   -5.6640   11.0568    0.0000 C   0  0  0  0  0  0  0  0  0  0  0  0
   -4.1640   11.0568    0.0000 C   0  0  0  0  0  0  0  0  0  0  0  0
   -3.4140   12.3558    0.0000 C   0  0  0  0  0  0  0  0  0  0  0  0
   -4.1640   13.6549    0.0000 C   0  0  0  0  0  0  0  0  0  0  0  0
   -5.6640   13.6549    0.0000 C   0  0  0  0  0  0  0  0  0  0  0  0
   -6.4140   12.3558    0.0000 C   0  0  0  0  0  0  0  0  0  0  0  0
   -6.4140    7.1597    0.0000 N   0  0  0  0  0  0  0  0  0  0  0  0
   -5.6640    5.8606    0.0000 C   0  0  0  0  0  0  0  0  0  0  0  0
   -4.1640    5.8606    0.0000 O   0  0  0  0  0  0  0  0  0  0  0  0
   -6.4140    4.5616    0.0000 C   0  0  0  0  0  0  0  0  0  0  0  0
   -7.9140    4.5616    0.0000 C   0  0  0  0  0  0  0  0  0  0  0  0
   -8.6640    5.8606    0.0000 C   0  0  0  0  0  0  0  0  0  0  0  0
   -7.9140    7.1597    0.0000 C   0  0  0  0  0  0  0  0  0  0  0  0
   -8.6640    8.4587    0.0000 C   0  0  0  0  0  0  0  0  0  0  0  0
  -10.1640    8.4587    0.0000 C   0  0  0  0  0  0  0  0  0  0  0  0
  -10.9140    7.1597    0.0000 C   0  0  0  0  0  0  0  0  0  0  0  0
  -10.1640    5.8606    0.0000 C   0  0  0  0  0  0  0  0  0  0  0  0
   -5.6640    3.2626    0.0000 N   0  0  0  0  0  0  0  0  0  0  0  0
   -4.1640    3.2626    0.0000 C   0  0  0  0  0  0  0  0  0  0  0  0
   -3.7367    4.2691    0.0000 O   0  0  0  0  0  0  0  0  0  0  0  0
   -3.4140    1.9635    0.0000 O   0  0  0  0  0  0  0  0  0  0  0  0
   -4.1640    0.6645    0.0000 C   0  0  0  0  0  0  0  0  0  0  0  0
   -3.5539   -0.7058    0.0000 C   0  0  0  0  0  0  0  0  0  0  0  0
   -4.6686   -1.7095    0.0000 O   0  0  0  0  0  0  0  0  0  0  0  0
   -5.9676   -0.9595    0.0000 C   0  0  0  0  0  0  0  0  0  0  0  0
   -7.4594   -1.1163    0.0000 O   0  0  0  0  0  0  0  0  0  0  0  0
   -8.0695    0.2540    0.0000 C   0  0  0  0  0  0  0  0  0  0  0  0
   -6.9548    1.2577    0.0000 C   0  0  0  0  0  0  0  0  0  0  0  0
   -5.6557    0.5077    0.0000 C   0  0  0  0  0  0  0  0  0  0  0  0
    1.0860    1.9635    0.0000 S   0  0  0  0  0  0  0  0  0  0  0  0
    2.3851    2.7135    0.0000 O   0  0  0  0  0  0  0  0  0  0  0  0
   -0.2130    1.2135    0.0000 O   0  0  0  0  0  0  0  0  0  0  0  0
    1.8360    0.6645    0.0000 C   0  0  0  0  0  0  0  0  0  0  0  0
    1.0860   -0.6346    0.0000 C   0  0  0  0  0  0  0  0  0  0  0  0
    1.8360   -1.9336    0.0000 C   0  0  0  0  0  0  0  0  0  0  0  0
    3.3360   -1.9336    0.0000 C   0  0  0  0  0  0  0  0  0  0  0  0
    4.0860   -0.6346    0.0000 C   0  0  0  0  0  0  0  0  0  0  0  0
    3.3360    0.6645    0.0000 C   0  0  0  0  0  0  0  0  0  0  0  0
  1  2  1  0
  2  3  1  0
  2  4  1  0
  2  5  1  0
  5  6  1  0
  6  7  1  0
  7  8  1  0
  8  9  2  0
  8 10  1  0
 10 11  1  0
 11 12  1  0
 12 13  2  0
 13 14  1  0
 14 15  2  0
 15 16  1  0
 16 17  2  0
 10 18  1  0
 18 19  1  0
 19 20  2  0
 19 21  1  0
 21 22  1  0
 22 23  1  0
 23 24  2  0
 24 25  1  0
 25 26  2  0
 26 27  1  0
 27 28  2  0
 21 29  1  0
 29 30  1  0
 30 31  2  0
 30 32  1  0
 32 33  1  0
 33 34  1  0
 34 35  2  0
 35 36  1  0
 36 37  2  0
 37 38  1  0
 38 39  2  0
 32 40  1  0
 40 41  1  0
 41 42  2  0
 41 43  1  0
 43 44  1  0
 44 45  1  0
 45 46  2  0
 46 47  1  0
 47 48  2  0
 48 49  1  0
 49 50  2  0
 43 51  1  0
 51 52  1  0
 52 53  2  0
 52 54  1  0
 54 55  1  0
 55 56  1  0
 56 57  1  0
 57 58  1  0
 58 59  1  0
 59 60  1  0
 60 61  1  0
 61 62  1  0
  6 63  1  0
 63 64  2  0
 63 65  2  0
 63 66  1  0
 66 67  2  0
 67 68  1  0
 68 69  2  0
 69 70  1  0
 70 71  2  0
 17 12  1  0
 28 23  1  0
 39 34  1  0
 50 45  1  0
 62 55  1  0
 71 66  1  0
 62 58  1  0
M  END
>  <Title>  (134) 
idAAFDgen4

$$$$

     RDKit          2D

 67 73  0  0  0  0  0  0  0  0999 V2000
    0.3360    3.2626    0.0000 C   0  0  0  0  0  0  0  0  0  0  0  0
    1.0860    4.5616    0.0000 C   0  0  0  0  0  0  0  0  0  0  0  0
    2.5860    4.5616    0.0000 C   0  0  0  0  0  0  0  0  0  0  0  0
    0.3360    5.8606    0.0000 C   0  0  0  0  0  0  0  0  0  0  0  0
    1.0860    7.1597    0.0000 N   0  0  0  0  0  0  0  0  0  0  0  0
    0.3360    8.4587    0.0000 C   0  0  0  0  0  0  0  0  0  0  0  0
   -1.1640    8.4587    0.0000 C   0  0  0  0  0  0  0  0  0  0  0  0
   -1.9140    7.1597    0.0000 O   0  0  0  0  0  0  0  0  0  0  0  0
   -1.9140    9.7578    0.0000 C   0  0  0  0  0  0  0  0  0  0  0  0
   -1.1640   11.0568    0.0000 C   0  0  0  0  0  0  0  0  0  0  0  0
    0.3360   11.0568    0.0000 C   0  0  0  0  0  0  0  0  0  0  0  0
    1.0860    9.7578    0.0000 C   0  0  0  0  0  0  0  0  0  0  0  0
    2.5860    9.7578    0.0000 C   0  0  0  0  0  0  0  0  0  0  0  0
    3.3360   11.0568    0.0000 C   0  0  0  0  0  0  0  0  0  0  0  0
    2.5860   12.3558    0.0000 C   0  0  0  0  0  0  0  0  0  0  0  0
    1.0860   12.3558    0.0000 C   0  0  0  0  0  0  0  0  0  0  0  0
   -3.4140    9.7578    0.0000 N   0  0  0  0  0  0  0  0  0  0  0  0
   -4.1640    8.4587    0.0000 C   0  0  0  0  0  0  0  0  0  0  0  0
   -3.4140    7.1597    0.0000 O   0  0  0  0  0  0  0  0  0  0  0  0
   -5.6640    8.4587    0.0000 C   0  0  0  0  0  0  0  0  0  0  0  0
   -6.4140    9.7578    0.0000 C   0  0  0  0  0  0  0  0  0  0  0  0
   -5.6640   11.0568    0.0000 C   0  0  0  0  0  0  0  0  0  0  0  0
   -4.1640   11.0568    0.0000 C   0  0  0  0  0  0  0  0  0  0  0  0
   -3.4140   12.3558    0.0000 C   0  0  0  0  0  0  0  0  0  0  0  0
   -4.1640   13.6549    0.0000 C   0  0  0  0  0  0  0  0  0  0  0  0
   -5.6640   13.6549    0.0000 C   0  0  0  0  0  0  0  0  0  0  0  0
   -6.4140   12.3558    0.0000 C   0  0  0  0  0  0  0  0  0  0  0  0
   -6.4140    7.1597    0.0000 N   0  0  0  0  0  0  0  0  0  0  0  0
   -5.6640    5.8606    0.0000 C   0  0  0  0  0  0  0  0  0  0  0  0
   -4.1640    5.8606    0.0000 O   0  0  0  0  0  0  0  0  0  0  0  0
   -6.4140    4.5616    0.0000 C   0  0  0  0  0  0  0  0  0  0  0  0
   -7.9140    4.5616    0.0000 C   0  0  0  0  0  0  0  0  0  0  0  0
   -8.6640    5.8606    0.0000 C   0  0  0  0  0  0  0  0  0  0  0  0
   -7.9140    7.1597    0.0000 C   0  0  0  0  0  0  0  0  0  0  0  0
   -8.6640    8.4587    0.0000 C   0  0  0  0  0  0  0  0  0  0  0  0
  -10.1640    8.4587    0.0000 C   0  0  0  0  0  0  0  0  0  0  0  0
  -10.9140    7.1597    0.0000 C   0  0  0  0  0  0  0  0  0  0  0  0
  -10.1640    5.8606    0.0000 C   0  0  0  0  0  0  0  0  0  0  0  0
   -5.6640    3.2626    0.0000 N   0  0  0  0  0  0  0  0  0  0  0  0
   -4.1640    3.2626    0.0000 C   0  0  0  0  0  0  0  0  0  0  0  0
   -3.4140    4.5616    0.0000 O   0  0  0  0  0  0  0  0  0  0  0  0
   -3.4140    1.9635    0.0000 O   0  0  0  0  0  0  0  0  0  0  0  0
   -4.1640    0.6645    0.0000 C   0  0  0  0  0  0  0  0  0  0  0  0
   -5.6557    0.5077    0.0000 C   0  0  0  0  0  0  0  0  0  0  0  0
   -5.9676   -0.9595    0.0000 O   0  0  0  0  0  0  0  0  0  0  0  0
   -4.6686   -1.7095    0.0000 C   0  0  0  0  0  0  0  0  0  0  0  0
   -4.0585   -3.0798    0.0000 O   0  0  0  0  0  0  0  0  0  0  0  0
   -2.5667   -2.9231    0.0000 C   0  0  0  0  0  0  0  0  0  0  0  0
   -2.2548   -1.4558    0.0000 C   0  0  0  0  0  0  0  0  0  0  0  0
   -3.5539   -0.7058    0.0000 C   0  0  0  0  0  0  0  0  0  0  0  0
    2.5860    7.1597    0.0000 S   0  0  0  0  0  0  0  0  0  0  0  0
    2.5860    8.6597    0.0000 O   0  0  0  0  0  0  0  0  0  0  0  0
    2.5860    5.6597    0.0000 O   0  0  0  0  0  0  0  0  0  0  0  0
    4.0860    7.1597    0.0000 C   0  0  0  0  0  0  0  0  0  0  0  0
    4.8360    8.4587    0.0000 C   0  0  0  0  0  0  0  0  0  0  0  0
    6.3360    8.4587    0.0000 C   0  0  0  0  0  0  0  0  0  0  0  0
    7.0860    7.1597    0.0000 C   0  0  0  0  0  0  0  0  0  0  0  0
    8.5860    7.1597    0.0000 N   0  0  0  0  0  0  0  0  0  0  0  0
    9.3360    8.4587    0.0000 C   0  0  0  0  0  0  0  0  0  0  0  0
   10.8360    8.4587    0.0000 C   0  0  0  0  0  0  0  0  0  0  0  0
   11.5860    9.7578    0.0000 C   0  0  0  0  0  0  0  0  0  0  0  0
   13.0860    9.7578    0.0000 C   0  0  0  0  0  0  0  0  0  0  0  0
   13.8360    8.4587    0.0000 C   0  0  0  0  0  0  0  0  0  0  0  0
   13.0860    7.1597    0.0000 C   0  0  0  0  0  0  0  0  0  0  0  0
   11.5860    7.1597    0.0000 C   0  0  0  0  0  0  0  0  0  0  0  0
    6.3360    5.8606    0.0000 C   0  0  0  0  0  0  0  0  0  0  0  0
    4.8360    5.8606    0.0000 C   0  0  0  0  0  0  0  0  0  0  0  0
  1  2  1  0
  2  3  1  0
  2  4  1  0
  4  5  1  0
  5  6  1  0
  6  7  1  0
  7  8  1  0
  7  9  1  0
  9 10  1  0
 10 11  1  0
 11 12  2  0
 12 13  1  0
 13 14  2  0
 14 15  1  0
 15 16  2  0
  9 17  1  0
 17 18  1  0
 18 19  2  0
 18 20  1  0
 20 21  1  0
 21 22  1  0
 22 23  2  0
 23 24  1  0
 24 25  2  0
 25 26  1  0
 26 27  2  0
 20 28  1  0
 28 29  1  0
 29 30  2  0
 29 31  1  0
 31 32  1  0
 32 33  1  0
 33 34  2  0
 34 35  1  0
 35 36  2  0
 36 37  1  0
 37 38  2  0
 31 39  1  0
 39 40  1  0
 40 41  2  0
 40 42  1  0
 42 43  1  0
 43 44  1  0
 44 45  1  0
 45 46  1  0
 46 47  1  0
 47 48  1  0
 48 49  1  0
 49 50  1  0
  5 51  1  0
 51 52  2  0
 51 53  2  0
 51 54  1  0
 54 55  2  0
 55 56  1  0
 56 57  2  0
 57 58  1  0
 58 59  1  0
 59 60  1  0
 60 61  2  0
 61 62  1  0
 62 63  2  0
 63 64  1  0
 64 65  2  0
 57 66  1  0
 66 67  2  0
 16 11  1  0
 27 22  1  0
 38 33  1  0
 50 43  1  0
 67 54  1  0
 50 46  1  0
 65 60  1  0
M  END
>  <Title>  (135) 
idAAFEgen4

$$$$

     RDKit          2D

 77 83  0  0  0  0  0  0  0  0999 V2000
    7.0860    9.7578    0.0000 C   0  0  0  0  0  0  0  0  0  0  0  0
    5.5860    9.7578    0.0000 N   0  0  0  0  0  0  0  0  0  0  0  0
    4.8360    8.4587    0.0000 C   0  0  0  0  0  0  0  0  0  0  0  0
    5.5860    7.1597    0.0000 O   0  0  0  0  0  0  0  0  0  0  0  0
    3.3360    8.4587    0.0000 C   0  0  0  0  0  0  0  0  0  0  0  0
    2.5860    9.7578    0.0000 C   0  0  0  0  0  0  0  0  0  0  0  0
    3.3360   11.0568    0.0000 C   0  0  0  0  0  0  0  0  0  0  0  0
    2.5860   12.3558    0.0000 C   0  0  0  0  0  0  0  0  0  0  0  0
    3.3360   13.6549    0.0000 C   0  0  0  0  0  0  0  0  0  0  0  0
    4.8360   13.6549    0.0000 C   0  0  0  0  0  0  0  0  0  0  0  0
    5.5860   12.3558    0.0000 C   0  0  0  0  0  0  0  0  0  0  0  0
    4.8360   11.0568    0.0000 C   0  0  0  0  0  0  0  0  0  0  0  0
    2.5860    7.1597    0.0000 N   0  0  0  0  0  0  0  0  0  0  0  0
    3.3360    5.8606    0.0000 C   0  0  0  0  0  0  0  0  0  0  0  0
    4.8360    5.8606    0.0000 O   0  0  0  0  0  0  0  0  0  0  0  0
    2.5860    4.5616    0.0000 C   0  0  0  0  0  0  0  0  0  0  0  0
    3.3360    3.2626    0.0000 C   0  0  0  0  0  0  0  0  0  0  0  0
    4.8360    3.2626    0.0000 C   0  0  0  0  0  0  0  0  0  0  0  0
    5.5860    4.5616    0.0000 C   0  0  0  0  0  0  0  0  0  0  0  0
    7.0860    4.5616    0.0000 C   0  0  0  0  0  0  0  0  0  0  0  0
    7.8360    3.2626    0.0000 C   0  0  0  0  0  0  0  0  0  0  0  0
    7.0860    1.9635    0.0000 C   0  0  0  0  0  0  0  0  0  0  0  0
    5.5860    1.9635    0.0000 C   0  0  0  0  0  0  0  0  0  0  0  0
    1.0860    4.5616    0.0000 N   0  0  0  0  0  0  0  0  0  0  0  0
    0.3360    5.8606    0.0000 C   0  0  0  0  0  0  0  0  0  0  0  0
    1.0860    7.1597    0.0000 O   0  0  0  0  0  0  0  0  0  0  0  0
   -1.1640    5.8606    0.0000 C   0  0  0  0  0  0  0  0  0  0  0  0
   -1.9140    4.5616    0.0000 C   0  0  0  0  0  0  0  0  0  0  0  0
   -1.1640    3.2626    0.0000 C   0  0  0  0  0  0  0  0  0  0  0  0
    0.3360    3.2626    0.0000 C   0  0  0  0  0  0  0  0  0  0  0  0
    1.0860    1.9635    0.0000 C   0  0  0  0  0  0  0  0  0  0  0  0
    0.3360    0.6645    0.0000 C   0  0  0  0  0  0  0  0  0  0  0  0
   -1.1640    0.6645    0.0000 C   0  0  0  0  0  0  0  0  0  0  0  0
   -1.9140    1.9635    0.0000 C   0  0  0  0  0  0  0  0  0  0  0  0
   -1.9140    7.1597    0.0000 N   0  0  0  0  0  0  0  0  0  0  0  0
   -1.1640    8.4587    0.0000 C   0  0  0  0  0  0  0  0  0  0  0  0
    0.3360    8.4587    0.0000 O   0  0  0  0  0  0  0  0  0  0  0  0
   -1.9140    9.7578    0.0000 C   0  0  0  0  0  0  0  0  0  0  0  0
   -1.1640   11.0568    0.0000 C   0  0  0  0  0  0  0  0  0  0  0  0
    0.3360   11.0568    0.0000 C   0  0  0  0  0  0  0  0  0  0  0  0
    0.3360   12.5568    0.0000 C   0  0  0  0  0  0  0  0  0  0  0  0
    0.3360    9.5568    0.0000 C   0  0  0  0  0  0  0  0  0  0  0  0
    1.8360   11.0568    0.0000 C   0  0  0  0  0  0  0  0  0  0  0  0
   -3.4140    9.7578    0.0000 N   0  0  0  0  0  0  0  0  0  0  0  0
   -4.1640    8.4587    0.0000 C   0  0  0  0  0  0  0  0  0  0  0  0
   -3.4140    7.1597    0.0000 O   0  0  0  0  0  0  0  0  0  0  0  0
   -5.6640    8.4587    0.0000 C   0  0  0  0  0  0  0  0  0  0  0  0
   -6.4140    7.1597    0.0000 C   0  0  0  0  0  0  0  0  0  0  0  0
   -5.6640    5.8606    0.0000 C   0  0  0  0  0  0  0  0  0  0  0  0
   -4.1640    5.8606    0.0000 C   0  0  0  0  0  0  0  0  0  0  0  0
   -3.4140    4.5616    0.0000 C   0  0  0  0  0  0  0  0  0  0  0  0
   -4.1640    3.2626    0.0000 C   0  0  0  0  0  0  0  0  0  0  0  0
   -5.6640    3.2626    0.0000 C   0  0  0  0  0  0  0  0  0  0  0  0
   -6.4140    4.5616    0.0000 C   0  0  0  0  0  0  0  0  0  0  0  0
   -6.4140    9.7578    0.0000 N   0  0  0  0  0  0  0  0  0  0  0  0
   -5.6640   11.0568    0.0000 C   0  0  0  0  0  0  0  0  0  0  0  0
   -4.1640   11.0568    0.0000 O   0  0  0  0  0  0  0  0  0  0  0  0
   -6.4140   12.3558    0.0000 C   0  0  0  0  0  0  0  0  0  0  0  0
   -7.9140   12.3558    0.0000 C   0  0  0  0  0  0  0  0  0  0  0  0
   -8.6640   11.0568    0.0000 C   0  0  0  0  0  0  0  0  0  0  0  0
   -7.9140    9.7578    0.0000 C   0  0  0  0  0  0  0  0  0  0  0  0
   -8.6640    8.4587    0.0000 C   0  0  0  0  0  0  0  0  0  0  0  0
  -10.1640    8.4587    0.0000 C   0  0  0  0  0  0  0  0  0  0  0  0
  -10.9140    9.7578    0.0000 C   0  0  0  0  0  0  0  0  0  0  0  0
  -10.1640   11.0568    0.0000 C   0  0  0  0  0  0  0  0  0  0  0  0
   -5.6640   13.6549    0.0000 N   0  0  0  0  0  0  0  0  0  0  0  0
   -4.1640   13.6549    0.0000 C   0  0  0  0  0  0  0  0  0  0  0  0
   -3.4140   12.3558    0.0000 O   0  0  0  0  0  0  0  0  0  0  0  0
   -3.4140   14.9539    0.0000 O   0  0  0  0  0  0  0  0  0  0  0  0
   -1.9140   14.9539    0.0000 C   0  0  0  0  0  0  0  0  0  0  0  0
   -1.0323   13.7404    0.0000 C   0  0  0  0  0  0  0  0  0  0  0  0
    0.3943   14.2039    0.0000 O   0  0  0  0  0  0  0  0  0  0  0  0
    0.3943   15.7039    0.0000 C   0  0  0  0  0  0  0  0  0  0  0  0
    1.2760   16.9174    0.0000 O   0  0  0  0  0  0  0  0  0  0  0  0
    0.3943   18.1310    0.0000 C   0  0  0  0  0  0  0  0  0  0  0  0
   -1.0323   17.6674    0.0000 C   0  0  0  0  0  0  0  0  0  0  0  0
   -1.0323   16.1674    0.0000 C   0  0  0  0  0  0  0  0  0  0  0  0
  1  2  1  0
  2  3  1  0
  3  4  2  0
  3  5  1  0
  5  6  1  0
  6  7  1  0
  7  8  2  0
  8  9  1  0
  9 10  2  0
 10 11  1  0
 11 12  2  0
  5 13  1  0
 13 14  1  0
 14 15  2  0
 14 16  1  0
 16 17  1  0
 17 18  1  0
 18 19  2  0
 19 20  1  0
 20 21  2  0
 21 22  1  0
 22 23  2  0
 16 24  1  0
 24 25  1  0
 25 26  2  0
 25 27  1  0
 27 28  1  0
 28 29  1  0
 29 30  2  0
 30 31  1  0
 31 32  2  0
 32 33  1  0
 33 34  2  0
 27 35  1  0
 35 36  1  0
 36 37  2  0
 36 38  1  0
 38 39  1  0
 39 40  1  0
 40 41  1  0
 40 42  1  0
 40 43  1  0
 38 44  1  0
 44 45  1  0
 45 46  2  0
 45 47  1  0
 47 48  1  0
 48 49  1  0
 49 50  2  0
 50 51  1  0
 51 52  2  0
 52 53  1  0
 53 54  2  0
 47 55  1  0
 55 56  1  0
 56 57  2  0
 56 58  1  0
 58 59  1  0
 59 60  1  0
 60 61  2  0
 61 62  1  0
 62 63  2  0
 63 64  1  0
 64 65  2  0
 58 66  1  0
 66 67  1  0
 67 68  2  0
 67 69  1  0
 69 70  1  0
 70 71  1  0
 71 72  1  0
 72 73  1  0
 73 74  1  0
 74 75  1  0
 75 76  1  0
 76 77  1  0
 12  7  1  0
 23 18  1  0
 34 29  1  0
 54 49  1  0
 65 60  1  0
 77 70  1  0
 77 73  1  0
M  END
>  <Title>  (136) 
idAAFFgen4

$$$$

     RDKit          2D

 48 52  0  0  0  0  0  0  0  0999 V2000
    1.0860   12.3558    0.0000 C   0  0  0  0  0  0  0  0  0  0  0  0
    0.3360   11.0568    0.0000 C   0  0  0  0  0  0  0  0  0  0  0  0
    1.0860    9.7578    0.0000 C   0  0  0  0  0  0  0  0  0  0  0  0
   -1.1640   11.0568    0.0000 C   0  0  0  0  0  0  0  0  0  0  0  0
   -1.9140    9.7578    0.0000 C   0  0  0  0  0  0  0  0  0  0  0  0
   -3.4140    9.7578    0.0000 C   0  0  0  0  0  0  0  0  0  0  0  0
   -4.1640    8.4587    0.0000 C   0  0  0  0  0  0  0  0  0  0  0  0
   -3.4140    7.1597    0.0000 O   0  0  0  0  0  0  0  0  0  0  0  0
   -5.6640    8.4587    0.0000 C   0  0  0  0  0  0  0  0  0  0  0  0
   -6.4140    9.7578    0.0000 C   0  0  0  0  0  0  0  0  0  0  0  0
   -5.6640   11.0568    0.0000 C   0  0  0  0  0  0  0  0  0  0  0  0
   -4.1640   11.0568    0.0000 C   0  0  0  0  0  0  0  0  0  0  0  0
   -3.4140   12.3558    0.0000 C   0  0  0  0  0  0  0  0  0  0  0  0
   -4.1640   13.6549    0.0000 C   0  0  0  0  0  0  0  0  0  0  0  0
   -5.6640   13.6549    0.0000 C   0  0  0  0  0  0  0  0  0  0  0  0
   -6.4140   12.3558    0.0000 C   0  0  0  0  0  0  0  0  0  0  0  0
   -6.4140    7.1597    0.0000 N   0  0  0  0  0  0  0  0  0  0  0  0
   -5.6640    5.8606    0.0000 C   0  0  0  0  0  0  0  0  0  0  0  0
   -4.1640    5.8606    0.0000 O   0  0  0  0  0  0  0  0  0  0  0  0
   -6.4140    4.5616    0.0000 C   0  0  0  0  0  0  0  0  0  0  0  0
   -7.9140    4.5616    0.0000 C   0  0  0  0  0  0  0  0  0  0  0  0
   -8.6640    5.8606    0.0000 C   0  0  0  0  0  0  0  0  0  0  0  0
   -7.9140    7.1597    0.0000 C   0  0  0  0  0  0  0  0  0  0  0  0
   -8.6640    8.4587    0.0000 C   0  0  0  0  0  0  0  0  0  0  0  0
  -10.1640    8.4587    0.0000 C   0  0  0  0  0  0  0  0  0  0  0  0
  -10.9140    7.1597    0.0000 C   0  0  0  0  0  0  0  0  0  0  0  0
  -10.1640    5.8606    0.0000 C   0  0  0  0  0  0  0  0  0  0  0  0
   -5.6640    3.2626    0.0000 N   0  0  0  0  0  0  0  0  0  0  0  0
   -4.1640    3.2626    0.0000 C   0  0  0  0  0  0  0  0  0  0  0  0
   -3.4140    4.5616    0.0000 O   0  0  0  0  0  0  0  0  0  0  0  0
   -3.4140    1.9635    0.0000 O   0  0  0  0  0  0  0  0  0  0  0  0
   -1.9140    1.9635    0.0000 C   0  0  0  0  0  0  0  0  0  0  0  0
   -1.0323    3.1771    0.0000 C   0  0  0  0  0  0  0  0  0  0  0  0
    0.3943    2.7135    0.0000 O   0  0  0  0  0  0  0  0  0  0  0  0
    0.3943    1.2135    0.0000 C   0  0  0  0  0  0  0  0  0  0  0  0
    1.2760    0.0000    0.0000 O   0  0  0  0  0  0  0  0  0  0  0  0
    0.3943   -1.2135    0.0000 C   0  0  0  0  0  0  0  0  0  0  0  0
   -1.0323   -0.7500    0.0000 C   0  0  0  0  0  0  0  0  0  0  0  0
   -1.0323    0.7500    0.0000 C   0  0  0  0  0  0  0  0  0  0  0  0
   -1.1640    8.4587    0.0000 S   0  0  0  0  0  0  0  0  0  0  0  0
    0.1351    9.2087    0.0000 O   0  0  0  0  0  0  0  0  0  0  0  0
   -2.4630    7.7087    0.0000 O   0  0  0  0  0  0  0  0  0  0  0  0
   -0.4140    7.1597    0.0000 C   0  0  0  0  0  0  0  0  0  0  0  0
   -1.1640    5.8606    0.0000 C   0  0  0  0  0  0  0  0  0  0  0  0
   -0.4140    4.5616    0.0000 C   0  0  0  0  0  0  0  0  0  0  0  0
    1.0860    4.5616    0.0000 C   0  0  0  0  0  0  0  0  0  0  0  0
    1.8360    5.8606    0.0000 C   0  0  0  0  0  0  0  0  0  0  0  0
    1.0860    7.1597    0.0000 C   0  0  0  0  0  0  0  0  0  0  0  0
  1  2  1  0
  2  3  1  0
  2  4  1  0
  4  5  1  0
  5  6  1  0
  6  7  1  0
  7  8  1  0
  7  9  1  0
  9 10  1  0
 10 11  1  0
 11 12  2  0
 12 13  1  0
 13 14  2  0
 14 15  1  0
 15 16  2  0
  9 17  1  0
 17 18  1  0
 18 19  2  0
 18 20  1  0
 20 21  1  0
 21 22  1  0
 22 23  2  0
 23 24  1  0
 24 25  2  0
 25 26  1  0
 26 27  2  0
 20 28  1  0
 28 29  1  0
 29 30  2  0
 29 31  1  0
 31 32  1  0
 32 33  1  0
 33 34  1  0
 34 35  1  0
 35 36  1  0
 36 37  1  0
 37 38  1  0
 38 39  1  0
  5 40  1  0
 40 41  2  0
 40 42  2  0
 40 43  1  0
 43 44  2  0
 44 45  1  0
 45 46  2  0
 46 47  1  0
 47 48  2  0
 16 11  1  0
 27 22  1  0
 39 32  1  0
 48 43  1  0
 39 35  1  0
M  END
>  <Title>  (137) 
idAAFGgen4

$$$$

     RDKit          2D

 20 22  0  0  0  0  0  0  0  0999 V2000
    2.6491    0.9642    0.0000 C   0  0  0  0  0  0  0  0  0  0  0  0
    1.5000    0.0000    0.0000 C   0  0  0  0  0  0  0  0  0  0  0  0
    2.6491   -0.9642    0.0000 C   0  0  0  0  0  0  0  0  0  0  0  0
    0.7500   -1.2990    0.0000 C   0  0  0  0  0  0  0  0  0  0  0  0
   -0.7500   -1.2990    0.0000 C   0  0  0  0  0  0  0  0  0  0  0  0
   -1.5000    0.0000    0.0000 C   0  0  0  0  0  0  0  0  0  0  0  0
   -0.7500    1.2990    0.0000 C   0  0  0  0  0  0  0  0  0  0  0  0
   -2.2500    1.2990    0.0000 C   0  0  0  0  0  0  0  0  0  0  0  0
   -1.5000    2.5981    0.0000 C   0  0  0  0  0  0  0  0  0  0  0  0
   -3.0000    2.5981    0.0000 C   0  0  0  0  0  0  0  0  0  0  0  0
   -3.7500    3.8971    0.0000 C   0  0  0  0  0  0  0  0  0  0  0  0
   -5.2500    3.8971    0.0000 C   0  0  0  0  0  0  0  0  0  0  0  0
   -6.1317    2.6836    0.0000 C   0  0  0  0  0  0  0  0  0  0  0  0
   -7.5583    3.1471    0.0000 C   0  0  0  0  0  0  0  0  0  0  0  0
   -7.5583    4.6471    0.0000 C   0  0  0  0  0  0  0  0  0  0  0  0
   -6.1317    5.1106    0.0000 C   0  0  0  0  0  0  0  0  0  0  0  0
   -0.7500    3.8971    0.0000 C   0  0  0  0  0  0  0  0  0  0  0  0
    0.7500    3.8971    0.0000 C   0  0  0  0  0  0  0  0  0  0  0  0
    1.5000    2.5981    0.0000 C   0  0  0  0  0  0  0  0  0  0  0  0
    0.7500    1.2990    0.0000 C   0  0  0  0  0  0  0  0  0  0  0  0
  1  2  1  0
  2  3  1  0
  2  4  1  0
  4  5  1  0
  5  6  1  0
  6  7  1  0
  7  8  1  0
  7  9  1  0
  9 10  1  0
 10 11  1  0
 11 12  1  0
 12 13  1  0
 13 14  1  0
 14 15  1  0
 15 16  1  0
  9 17  1  0
 17 18  1  0
 18 19  1  0
 19 20  1  0
 20  2  1  0
 20  7  1  0
 16 12  1  0
M  END
>  <Title>  (138) 
idAAFHgen4

$$$$

     RDKit          2D

 40 42  0  0  0  0  0  0  0  0999 V2000
    6.7500   -6.4952    0.0000 C   0  0  0  0  0  0  0  0  0  0  0  0
    6.0000   -5.1962    0.0000 C   0  0  0  0  0  0  0  0  0  0  0  0
    6.7500   -3.8971    0.0000 C   0  0  0  0  0  0  0  0  0  0  0  0
    4.5000   -5.1962    0.0000 C   0  0  0  0  0  0  0  0  0  0  0  0
    3.7500   -3.8971    0.0000 C   0  0  0  0  0  0  0  0  0  0  0  0
    2.2500   -3.8971    0.0000 N   0  0  0  0  0  0  0  0  0  0  0  0
    1.5000   -2.5981    0.0000 S   0  0  0  0  0  0  0  0  0  0  0  0
    0.2010   -3.3481    0.0000 O   0  0  0  0  0  0  0  0  0  0  0  0
    2.7990   -1.8481    0.0000 O   0  0  0  0  0  0  0  0  0  0  0  0
    0.7500   -1.2990    0.0000 C   0  0  0  0  0  0  0  0  0  0  0  0
    1.5000    0.0000    0.0000 C   0  0  0  0  0  0  0  0  0  0  0  0
    0.7500    1.2990    0.0000 C   0  0  0  0  0  0  0  0  0  0  0  0
   -0.7500    1.2990    0.0000 C   0  0  0  0  0  0  0  0  0  0  0  0
   -1.5000    0.0000    0.0000 C   0  0  0  0  0  0  0  0  0  0  0  0
   -0.7500   -1.2990    0.0000 C   0  0  0  0  0  0  0  0  0  0  0  0
    4.5000   -2.5981    0.0000 C   0  0  0  0  0  0  0  0  0  0  0  0
    3.7500   -1.2990    0.0000 O   0  0  0  0  0  0  0  0  0  0  0  0
    6.0000   -2.5981    0.0000 N   0  0  0  0  0  0  0  0  0  0  0  0
    6.7500   -1.2990    0.0000 C   0  0  0  0  0  0  0  0  0  0  0  0
    8.2500   -1.2990    0.0000 C   0  0  0  0  0  0  0  0  0  0  0  0
    9.0000   -0.0000    0.0000 C   0  0  0  0  0  0  0  0  0  0  0  0
   10.5000   -0.0000    0.0000 C   0  0  0  0  0  0  0  0  0  0  0  0
   11.2500    1.2990    0.0000 C   0  0  0  0  0  0  0  0  0  0  0  0
   10.5000    2.5981    0.0000 C   0  0  0  0  0  0  0  0  0  0  0  0
    9.0000    2.5981    0.0000 C   0  0  0  0  0  0  0  0  0  0  0  0
    8.2500    1.2990    0.0000 C   0  0  0  0  0  0  0  0  0  0  0  0
    6.0000   -0.0000    0.0000 C   0  0  0  0  0  0  0  0  0  0  0  0
    4.5000   -0.0000    0.0000 O   0  0  0  0  0  0  0  0  0  0  0  0
    6.7500    1.2990    0.0000 N   0  0  0  0  0  0  0  0  0  0  0  0
    6.0000    2.5981    0.0000 C   0  0  0  0  0  0  0  0  0  0  0  0
    6.7500    3.8971    0.0000 C   0  0  0  0  0  0  0  0  0  0  0  0
    6.0000    5.1962    0.0000 C   0  0  0  0  0  0  0  0  0  0  0  0
    6.7500    6.4952    0.0000 C   0  0  0  0  0  0  0  0  0  0  0  0
    6.0000    7.7942    0.0000 C   0  0  0  0  0  0  0  0  0  0  0  0
    4.5000    7.7942    0.0000 C   0  0  0  0  0  0  0  0  0  0  0  0
    3.7500    6.4952    0.0000 C   0  0  0  0  0  0  0  0  0  0  0  0
    4.5000    5.1962    0.0000 C   0  0  0  0  0  0  0  0  0  0  0  0
    4.5000    2.5981    0.0000 C   0  0  0  0  0  0  0  0  0  0  0  0
    3.7500    1.2990    0.0000 O   0  0  0  0  0  0  0  0  0  0  0  0
    3.7500    3.8971    0.0000 O   0  0  0  0  0  0  0  0  0  0  0  0
  1  2  1  0
  2  3  1  0
  2  4  1  0
  4  5  1  0
  5  6  1  0
  6  7  1  0
  7  8  2  0
  7  9  2  0
  7 10  1  0
 10 11  2  0
 11 12  1  0
 12 13  2  0
 13 14  1  0
 14 15  2  0
  5 16  1  0
 16 17  2  0
 16 18  1  0
 18 19  1  0
 19 20  1  0
 20 21  1  0
 21 22  2  0
 22 23  1  0
 23 24  2  0
 24 25  1  0
 25 26  2  0
 19 27  1  0
 27 28  2  0
 27 29  1  0
 29 30  1  0
 30 31  1  0
 31 32  1  0
 32 33  2  0
 33 34  1  0
 34 35  2  0
 35 36  1  0
 36 37  2  0
 30 38  1  0
 38 39  2  0
 38 40  1  0
 15 10  1  0
 26 21  1  0
 37 32  1  0
M  END
>  <Title>  (139) 
idAAFIgen4

$$$$

     RDKit          2D

 49 53  0  0  0  0  0  0  0  0999 V2000
    2.5860    9.7578    0.0000 C   0  0  0  0  0  0  0  0  0  0  0  0
    1.0860    9.7578    0.0000 C   0  0  0  0  0  0  0  0  0  0  0  0
    0.3360   11.0568    0.0000 C   0  0  0  0  0  0  0  0  0  0  0  0
    1.0860   12.3558    0.0000 C   0  0  0  0  0  0  0  0  0  0  0  0
   -1.1640   11.0568    0.0000 C   0  0  0  0  0  0  0  0  0  0  0  0
   -1.9140    9.7578    0.0000 N   0  0  0  0  0  0  0  0  0  0  0  0
   -3.4140    9.7578    0.0000 C   0  0  0  0  0  0  0  0  0  0  0  0
   -4.1640    8.4587    0.0000 C   0  0  0  0  0  0  0  0  0  0  0  0
   -3.4140    7.1597    0.0000 O   0  0  0  0  0  0  0  0  0  0  0  0
   -5.6640    8.4587    0.0000 C   0  0  0  0  0  0  0  0  0  0  0  0
   -6.4140    9.7578    0.0000 C   0  0  0  0  0  0  0  0  0  0  0  0
   -5.6640   11.0568    0.0000 C   0  0  0  0  0  0  0  0  0  0  0  0
   -4.1640   11.0568    0.0000 C   0  0  0  0  0  0  0  0  0  0  0  0
   -3.4140   12.3558    0.0000 C   0  0  0  0  0  0  0  0  0  0  0  0
   -4.1640   13.6549    0.0000 C   0  0  0  0  0  0  0  0  0  0  0  0
   -5.6640   13.6549    0.0000 C   0  0  0  0  0  0  0  0  0  0  0  0
   -6.4140   12.3558    0.0000 C   0  0  0  0  0  0  0  0  0  0  0  0
   -6.4140    7.1597    0.0000 N   0  0  0  0  0  0  0  0  0  0  0  0
   -5.6640    5.8606    0.0000 C   0  0  0  0  0  0  0  0  0  0  0  0
   -4.1640    5.8606    0.0000 O   0  0  0  0  0  0  0  0  0  0  0  0
   -6.4140    4.5616    0.0000 C   0  0  0  0  0  0  0  0  0  0  0  0
   -7.9140    4.5616    0.0000 C   0  0  0  0  0  0  0  0  0  0  0  0
   -8.6640    5.8606    0.0000 C   0  0  0  0  0  0  0  0  0  0  0  0
   -7.9140    7.1597    0.0000 C   0  0  0  0  0  0  0  0  0  0  0  0
   -8.6640    8.4587    0.0000 C   0  0  0  0  0  0  0  0  0  0  0  0
  -10.1640    8.4587    0.0000 C   0  0  0  0  0  0  0  0  0  0  0  0
  -10.9140    7.1597    0.0000 C   0  0  0  0  0  0  0  0  0  0  0  0
  -10.1640    5.8606    0.0000 C   0  0  0  0  0  0  0  0  0  0  0  0
   -5.6640    3.2626    0.0000 N   0  0  0  0  0  0  0  0  0  0  0  0
   -4.1640    3.2626    0.0000 C   0  0  0  0  0  0  0  0  0  0  0  0
   -3.4140    4.5616    0.0000 O   0  0  0  0  0  0  0  0  0  0  0  0
   -3.4140    1.9635    0.0000 O   0  0  0  0  0  0  0  0  0  0  0  0
   -1.9140    1.9635    0.0000 C   0  0  0  0  0  0  0  0  0  0  0  0
   -1.0323    3.1771    0.0000 C   0  0  0  0  0  0  0  0  0  0  0  0
    0.3943    2.7135    0.0000 O   0  0  0  0  0  0  0  0  0  0  0  0
    0.3943    1.2135    0.0000 C   0  0  0  0  0  0  0  0  0  0  0  0
    1.2760    0.0000    0.0000 O   0  0  0  0  0  0  0  0  0  0  0  0
    0.3943   -1.2135    0.0000 C   0  0  0  0  0  0  0  0  0  0  0  0
   -1.0323   -0.7500    0.0000 C   0  0  0  0  0  0  0  0  0  0  0  0
   -1.0323    0.7500    0.0000 C   0  0  0  0  0  0  0  0  0  0  0  0
   -1.1640    8.4587    0.0000 S   0  0  0  0  0  0  0  0  0  0  0  0
   -2.4630    7.7087    0.0000 O   0  0  0  0  0  0  0  0  0  0  0  0
    0.1351    9.2087    0.0000 O   0  0  0  0  0  0  0  0  0  0  0  0
   -0.4140    7.1597    0.0000 C   0  0  0  0  0  0  0  0  0  0  0  0
   -1.1640    5.8606    0.0000 C   0  0  0  0  0  0  0  0  0  0  0  0
   -0.4140    4.5616    0.0000 C   0  0  0  0  0  0  0  0  0  0  0  0
    1.0860    4.5616    0.0000 C   0  0  0  0  0  0  0  0  0  0  0  0
    1.8360    5.8606    0.0000 C   0  0  0  0  0  0  0  0  0  0  0  0
    1.0860    7.1597    0.0000 C   0  0  0  0  0  0  0  0  0  0  0  0
  1  2  1  0
  2  3  1  0
  3  4  1  0
  3  5  1  0
  5  6  1  0
  6  7  1  0
  7  8  1  0
  8  9  1  0
  8 10  1  0
 10 11  1  0
 11 12  1  0
 12 13  2  0
 13 14  1  0
 14 15  2  0
 15 16  1  0
 16 17  2  0
 10 18  1  0
 18 19  1  0
 19 20  2  0
 19 21  1  0
 21 22  1  0
 22 23  1  0
 23 24  2  0
 24 25  1  0
 25 26  2  0
 26 27  1  0
 27 28  2  0
 21 29  1  0
 29 30  1  0
 30 31  2  0
 30 32  1  0
 32 33  1  0
 33 34  1  0
 34 35  1  0
 35 36  1  0
 36 37  1  0
 37 38  1  0
 38 39  1  0
 39 40  1  0
  6 41  1  0
 41 42  2  0
 41 43  2  0
 41 44  1  0
 44 45  2  0
 45 46  1  0
 46 47  2  0
 47 48  1  0
 48 49  2  0
 17 12  1  0
 28 23  1  0
 40 33  1  0
 49 44  1  0
 40 36  1  0
M  END
>  <Title>  (140) 
idAAFJgen4

$$$$

     RDKit          2D

 71 78  0  0  0  0  0  0  0  0999 V2000
   -7.5000  -15.5885    0.0000 C   0  0  0  0  0  0  0  0  0  0  0  0
   -8.2500  -14.2894    0.0000 C   0  0  0  0  0  0  0  0  0  0  0  0
   -9.7500  -14.2894    0.0000 C   0  0  0  0  0  0  0  0  0  0  0  0
   -7.5000  -12.9904    0.0000 C   0  0  0  0  0  0  0  0  0  0  0  0
   -6.0000  -12.9904    0.0000 N   0  0  0  0  0  0  0  0  0  0  0  0
   -5.2500  -14.2894    0.0000 S   0  0  0  0  0  0  0  0  0  0  0  0
   -6.5490  -15.0394    0.0000 O   0  0  0  0  0  0  0  0  0  0  0  0
   -3.9510  -13.5394    0.0000 O   0  0  0  0  0  0  0  0  0  0  0  0
   -4.5000  -15.5885    0.0000 C   0  0  0  0  0  0  0  0  0  0  0  0
   -5.2500  -16.8875    0.0000 C   0  0  0  0  0  0  0  0  0  0  0  0
   -4.5000  -18.1865    0.0000 C   0  0  0  0  0  0  0  0  0  0  0  0
   -3.0000  -18.1865    0.0000 C   0  0  0  0  0  0  0  0  0  0  0  0
   -2.2500  -16.8875    0.0000 C   0  0  0  0  0  0  0  0  0  0  0  0
   -3.0000  -15.5885    0.0000 C   0  0  0  0  0  0  0  0  0  0  0  0
   -8.2500  -11.6913    0.0000 C   0  0  0  0  0  0  0  0  0  0  0  0
   -9.0235  -11.8842    0.0000 O   0  0  0  0  0  0  0  0  0  0  0  0
   -7.5000  -10.3923    0.0000 N   0  0  0  0  0  0  0  0  0  0  0  0
   -8.2500   -9.0933    0.0000 C   0  0  0  0  0  0  0  0  0  0  0  0
   -9.7500   -9.0933    0.0000 C   0  0  0  0  0  0  0  0  0  0  0  0
  -10.5000  -10.3923    0.0000 C   0  0  0  0  0  0  0  0  0  0  0  0
  -12.0000  -10.3923    0.0000 C   0  0  0  0  0  0  0  0  0  0  0  0
  -12.7500  -11.6913    0.0000 C   0  0  0  0  0  0  0  0  0  0  0  0
  -12.0000  -12.9904    0.0000 C   0  0  0  0  0  0  0  0  0  0  0  0
  -10.5000  -12.9904    0.0000 C   0  0  0  0  0  0  0  0  0  0  0  0
   -9.7500  -11.6913    0.0000 C   0  0  0  0  0  0  0  0  0  0  0  0
   -7.5000   -7.7942    0.0000 C   0  0  0  0  0  0  0  0  0  0  0  0
   -8.5420   -6.7153    0.0000 O   0  0  0  0  0  0  0  0  0  0  0  0
   -6.0000   -7.7942    0.0000 C   0  0  0  0  0  0  0  0  0  0  0  0
   -5.2500   -6.4952    0.0000 N   0  0  0  0  0  0  0  0  0  0  0  0
   -6.0000   -5.1962    0.0000 C   0  0  0  0  0  0  0  0  0  0  0  0
   -7.5000   -5.1962    0.0000 C   0  0  0  0  0  0  0  0  0  0  0  0
   -8.2500   -3.8971    0.0000 C   0  0  0  0  0  0  0  0  0  0  0  0
   -9.7500   -3.8971    0.0000 C   0  0  0  0  0  0  0  0  0  0  0  0
  -10.5000   -5.1962    0.0000 C   0  0  0  0  0  0  0  0  0  0  0  0
   -9.7500   -6.4952    0.0000 C   0  0  0  0  0  0  0  0  0  0  0  0
   -8.2500   -6.4952    0.0000 C   0  0  0  0  0  0  0  0  0  0  0  0
   -3.7500   -6.4952    0.0000 C   0  0  0  0  0  0  0  0  0  0  0  0
   -3.0000   -5.1962    0.0000 O   0  0  0  0  0  0  0  0  0  0  0  0
   -3.0000   -7.7942    0.0000 C   0  0  0  0  0  0  0  0  0  0  0  0
   -3.7500   -9.0933    0.0000 C   0  0  0  0  0  0  0  0  0  0  0  0
   -5.2500   -9.0933    0.0000 C   0  0  0  0  0  0  0  0  0  0  0  0
   -6.0000   -7.7942    0.0000 C   0  0  0  0  0  0  0  0  0  0  0  0
   -7.5000   -7.7942    0.0000 C   0  0  0  0  0  0  0  0  0  0  0  0
   -8.2500   -9.0933    0.0000 C   0  0  0  0  0  0  0  0  0  0  0  0
   -7.5000  -10.3923    0.0000 C   0  0  0  0  0  0  0  0  0  0  0  0
   -6.0000  -10.3923    0.0000 C   0  0  0  0  0  0  0  0  0  0  0  0
   -1.5000   -7.7942    0.0000 N   0  0  0  0  0  0  0  0  0  0  0  0
   -0.7500   -6.4952    0.0000 C   0  0  0  0  0  0  0  0  0  0  0  0
   -1.5000   -5.1962    0.0000 O   0  0  0  0  0  0  0  0  0  0  0  0
    0.7500   -6.4952    0.0000 C   0  0  0  0  0  0  0  0  0  0  0  0
    1.5000   -7.7942    0.0000 C   0  0  0  0  0  0  0  0  0  0  0  0
    0.7500   -9.0933    0.0000 C   0  0  0  0  0  0  0  0  0  0  0  0
   -0.7500   -9.0933    0.0000 C   0  0  0  0  0  0  0  0  0  0  0  0
   -1.5000  -10.3923    0.0000 C   0  0  0  0  0  0  0  0  0  0  0  0
   -0.7500  -11.6913    0.0000 C   0  0  0  0  0  0  0  0  0  0  0  0
    0.7500  -11.6913    0.0000 C   0  0  0  0  0  0  0  0  0  0  0  0
    1.5000  -10.3923    0.0000 C   0  0  0  0  0  0  0  0  0  0  0  0
    1.5000   -5.1962    0.0000 N   0  0  0  0  0  0  0  0  0  0  0  0
    0.7500   -3.8971    0.0000 C   0  0  0  0  0  0  0  0  0  0  0  0
   -0.7500   -3.8971    0.0000 O   0  0  0  0  0  0  0  0  0  0  0  0
    1.5000   -2.5981    0.0000 O   0  0  0  0  0  0  0  0  0  0  0  0
    0.7500   -1.2990    0.0000 C   0  0  0  0  0  0  0  0  0  0  0  0
    1.5000    0.0000    0.0000 C   0  0  0  0  0  0  0  0  0  0  0  0
    0.7500    1.2990    0.0000 C   0  0  0  0  0  0  0  0  0  0  0  0
   -0.7500    1.2990    0.0000 C   0  0  0  0  0  0  0  0  0  0  0  0
   -1.5000    0.0000    0.0000 C   0  0  0  0  0  0  0  0  0  0  0  0
    1.7010   -0.7500    0.0000 C   0  0  0  0  0  0  0  0  0  0  0  0
    3.0000   -0.0000    0.0000 C   0  0  0  0  0  0  0  0  0  0  0  0
    2.2500    1.2990    0.0000 C   0  0  0  0  0  0  0  0  0  0  0  0
    2.2500   -1.2990    0.0000 C   0  0  0  0  0  0  0  0  0  0  0  0
   -0.7500   -1.2990    0.0000 C   0  0  0  0  0  0  0  0  0  0  0  0
  1  2  1  0
  2  3  1  0
  2  4  1  0
  4  5  1  0
  5  6  1  0
  6  7  2  0
  6  8  2  0
  6  9  1  0
  9 10  2  0
 10 11  1  0
 11 12  2  0
 12 13  1  0
 13 14  2  0
  4 15  1  0
 15 16  2  0
 15 17  1  0
 17 18  1  0
 18 19  1  0
 19 20  1  0
 20 21  2  0
 21 22  1  0
 22 23  2  0
 23 24  1  0
 24 25  2  0
 18 26  1  0
 26 27  1  0
 26 28  1  0
 28 29  1  0
 29 30  1  0
 30 31  1  0
 31 32  2  0
 32 33  1  0
 33 34  2  0
 34 35  1  0
 35 36  2  0
 29 37  1  0
 37 38  2  0
 37 39  1  0
 39 40  1  0
 40 41  1  0
 41 42  2  0
 42 43  1  0
 43 44  2  0
 44 45  1  0
 45 46  2  0
 39 47  1  0
 47 48  1  0
 48 49  2  0
 48 50  1  0
 50 51  1  0
 51 52  1  0
 52 53  2  0
 53 54  1  0
 54 55  2  0
 55 56  1  0
 56 57  2  0
 50 58  1  0
 58 59  1  0
 59 60  2  0
 59 61  1  0
 61 62  1  0
 62 63  1  0
 63 64  1  0
 64 65  1  0
 65 66  1  0
 66 67  1  0
 67 68  1  0
 68 69  1  0
 68 70  1  0
 66 71  1  0
 14  9  1  0
 25 20  1  0
 36 31  1  0
 46 41  1  0
 57 52  1  0
 70 62  1  0
 71 62  1  0
 69 64  1  0
M  END
>  <Title>  (141) 
idAAFKgen4

$$$$

     RDKit          2D

 77 83  0  0  0  0  0  0  0  0999 V2000
    6.7500   -6.4952    0.0000 C   0  0  0  0  0  0  0  0  0  0  0  0
    6.0000   -5.1962    0.0000 C   0  0  0  0  0  0  0  0  0  0  0  0
    6.7500   -3.8971    0.0000 C   0  0  0  0  0  0  0  0  0  0  0  0
    4.5000   -5.1962    0.0000 C   0  0  0  0  0  0  0  0  0  0  0  0
    3.7500   -3.8971    0.0000 C   0  0  0  0  0  0  0  0  0  0  0  0
    2.2500   -3.8971    0.0000 N   0  0  0  0  0  0  0  0  0  0  0  0
    1.5000   -2.5981    0.0000 S   0  0  0  0  0  0  0  0  0  0  0  0
    0.4210   -3.6401    0.0000 O   0  0  0  0  0  0  0  0  0  0  0  0
    2.7990   -1.8481    0.0000 O   0  0  0  0  0  0  0  0  0  0  0  0
    0.7500   -1.2990    0.0000 C   0  0  0  0  0  0  0  0  0  0  0  0
    1.5000    0.0000    0.0000 C   0  0  0  0  0  0  0  0  0  0  0  0
    0.7500    1.2990    0.0000 C   0  0  0  0  0  0  0  0  0  0  0  0
   -0.7500    1.2990    0.0000 C   0  0  0  0  0  0  0  0  0  0  0  0
   -1.5000    0.0000    0.0000 C   0  0  0  0  0  0  0  0  0  0  0  0
   -0.7500   -1.2990    0.0000 C   0  0  0  0  0  0  0  0  0  0  0  0
    4.5000   -2.5981    0.0000 C   0  0  0  0  0  0  0  0  0  0  0  0
    3.7500   -1.2990    0.0000 O   0  0  0  0  0  0  0  0  0  0  0  0
    6.0000   -2.5981    0.0000 N   0  0  0  0  0  0  0  0  0  0  0  0
    6.7500   -1.2990    0.0000 C   0  0  0  0  0  0  0  0  0  0  0  0
    8.2500   -1.2990    0.0000 C   0  0  0  0  0  0  0  0  0  0  0  0
    9.0000   -0.0000    0.0000 C   0  0  0  0  0  0  0  0  0  0  0  0
   10.5000   -0.0000    0.0000 C   0  0  0  0  0  0  0  0  0  0  0  0
   11.2500    1.2990    0.0000 C   0  0  0  0  0  0  0  0  0  0  0  0
   10.5000    2.5981    0.0000 C   0  0  0  0  0  0  0  0  0  0  0  0
    9.0000    2.5981    0.0000 C   0  0  0  0  0  0  0  0  0  0  0  0
    8.2500    1.2990    0.0000 C   0  0  0  0  0  0  0  0  0  0  0  0
    6.0000   -0.0000    0.0000 C   0  0  0  0  0  0  0  0  0  0  0  0
    4.5000   -0.0000    0.0000 O   0  0  0  0  0  0  0  0  0  0  0  0
    6.7500    1.2990    0.0000 C   0  0  0  0  0  0  0  0  0  0  0  0
    6.0000    2.5981    0.0000 N   0  0  0  0  0  0  0  0  0  0  0  0
    6.7500    3.8971    0.0000 C   0  0  0  0  0  0  0  0  0  0  0  0
    6.0000    5.1962    0.0000 C   0  0  0  0  0  0  0  0  0  0  0  0
    4.5000    5.1962    0.0000 C   0  0  0  0  0  0  0  0  0  0  0  0
    3.7500    6.4952    0.0000 C   0  0  0  0  0  0  0  0  0  0  0  0
    4.5000    7.7942    0.0000 C   0  0  0  0  0  0  0  0  0  0  0  0
    3.7500    9.0933    0.0000 C   0  0  0  0  0  0  0  0  0  0  0  0
    2.2500    9.0933    0.0000 C   0  0  0  0  0  0  0  0  0  0  0  0
    1.5000   10.3923    0.0000 C   0  0  0  0  0  0  0  0  0  0  0  0
    2.2500   11.6913    0.0000 C   0  0  0  0  0  0  0  0  0  0  0  0
    3.7500   11.6913    0.0000 C   0  0  0  0  0  0  0  0  0  0  0  0
    4.5000   10.3923    0.0000 N   0  0  0  0  0  0  0  0  0  0  0  0
    6.0000    7.7942    0.0000 C   0  0  0  0  0  0  0  0  0  0  0  0
    6.7500    6.4952    0.0000 C   0  0  0  0  0  0  0  0  0  0  0  0
    4.5000    2.5981    0.0000 N   0  0  0  0  0  0  0  0  0  0  0  0
    3.7500    3.8971    0.0000 C   0  0  0  0  0  0  0  0  0  0  0  0
    3.9697    4.6634    0.0000 O   0  0  0  0  0  0  0  0  0  0  0  0
    2.2500    3.8971    0.0000 C   0  0  0  0  0  0  0  0  0  0  0  0
    1.5000    5.1962    0.0000 C   0  0  0  0  0  0  0  0  0  0  0  0
    0.0000    5.1962    0.0000 C   0  0  0  0  0  0  0  0  0  0  0  0
   -0.7500    6.4952    0.0000 C   0  0  0  0  0  0  0  0  0  0  0  0
   -2.2500    6.4952    0.0000 C   0  0  0  0  0  0  0  0  0  0  0  0
   -3.0000    5.1962    0.0000 C   0  0  0  0  0  0  0  0  0  0  0  0
   -2.2500    3.8971    0.0000 C   0  0  0  0  0  0  0  0  0  0  0  0
   -0.7500    3.8971    0.0000 C   0  0  0  0  0  0  0  0  0  0  0  0
    1.5000    2.5981    0.0000 N   0  0  0  0  0  0  0  0  0  0  0  0
    0.0000    2.5981    0.0000 C   0  0  0  0  0  0  0  0  0  0  0  0
   -1.0420    3.6770    0.0000 O   0  0  0  0  0  0  0  0  0  0  0  0
   -0.7500    1.2990    0.0000 C   0  0  0  0  0  0  0  0  0  0  0  0
   -2.2500    1.2990    0.0000 C   0  0  0  0  0  0  0  0  0  0  0  0
   -3.0000    0.0000    0.0000 C   0  0  0  0  0  0  0  0  0  0  0  0
   -4.5000    0.0000    0.0000 C   0  0  0  0  0  0  0  0  0  0  0  0
   -5.2500   -1.2990    0.0000 C   0  0  0  0  0  0  0  0  0  0  0  0
   -4.5000   -2.5981    0.0000 C   0  0  0  0  0  0  0  0  0  0  0  0
   -3.0000   -2.5981    0.0000 C   0  0  0  0  0  0  0  0  0  0  0  0
   -2.2500   -1.2990    0.0000 C   0  0  0  0  0  0  0  0  0  0  0  0
   -0.0000    0.0000    0.0000 N   0  0  0  0  0  0  0  0  0  0  0  0
   -0.7500   -1.2990    0.0000 C   0  0  0  0  0  0  0  0  0  0  0  0
   -2.2054   -1.6620    0.0000 O   0  0  0  0  0  0  0  0  0  0  0  0
   -0.0000   -2.5981    0.0000 C   0  0  0  0  0  0  0  0  0  0  0  0
    1.4554   -2.2351    0.0000 N   0  0  0  0  0  0  0  0  0  0  0  0
   -0.7500   -3.8971    0.0000 C   0  0  0  0  0  0  0  0  0  0  0  0
   -0.0000   -5.1962    0.0000 C   0  0  0  0  0  0  0  0  0  0  0  0
   -0.7500   -6.4952    0.0000 C   0  0  0  0  0  0  0  0  0  0  0  0
   -0.0000   -7.7942    0.0000 C   0  0  0  0  0  0  0  0  0  0  0  0
    1.5000   -7.7942    0.0000 C   0  0  0  0  0  0  0  0  0  0  0  0
    2.2500   -6.4952    0.0000 C   0  0  0  0  0  0  0  0  0  0  0  0
    1.5000   -5.1962    0.0000 C   0  0  0  0  0  0  0  0  0  0  0  0
  1  2  1  0
  2  3  1  0
  2  4  1  0
  4  5  1  0
  5  6  1  0
  6  7  1  0
  7  8  2  0
  7  9  2  0
  7 10  1  0
 10 11  2  0
 11 12  1  0
 12 13  2  0
 13 14  1  0
 14 15  2  0
  5 16  1  0
 16 17  2  0
 16 18  1  0
 18 19  1  0
 19 20  1  0
 20 21  1  0
 21 22  2  0
 22 23  1  0
 23 24  2  0
 24 25  1  0
 25 26  2  0
 19 27  1  0
 27 28  1  0
 27 29  1  0
 29 30  1  0
 30 31  1  0
 31 32  1  0
 32 33  2  0
 33 34  1  0
 34 35  2  0
 35 36  1  0
 36 37  2  0
 37 38  1  0
 38 39  2  0
 39 40  1  0
 40 41  2  0
 35 42  1  0
 42 43  2  0
 30 44  1  0
 44 45  1  0
 45 46  2  0
 45 47  1  0
 47 48  1  0
 48 49  1  0
 49 50  2  0
 50 51  1  0
 51 52  2  0
 52 53  1  0
 53 54  2  0
 47 55  1  0
 55 56  1  0
 56 57  2  0
 56 58  1  0
 58 59  1  0
 59 60  1  0
 60 61  2  0
 61 62  1  0
 62 63  2  0
 63 64  1  0
 64 65  2  0
 58 66  1  0
 66 67  1  0
 67 68  2  0
 67 69  1  0
 69 70  1  0
 69 71  1  0
 71 72  1  0
 72 73  2  0
 73 74  1  0
 74 75  2  0
 75 76  1  0
 76 77  2  0
 15 10  1  0
 26 21  1  0
 43 32  1  0
 54 49  1  0
 65 60  1  0
 77 72  1  0
 41 36  1  0
M  END
>  <Title>  (142) 
idAAFLgen4

$$$$

     RDKit          2D

 69 75  0  0  0  0  0  0  0  0999 V2000
    1.0860    4.5616    0.0000 C   0  0  0  0  0  0  0  0  0  0  0  0
    0.3360    5.8606    0.0000 C   0  0  0  0  0  0  0  0  0  0  0  0
   -1.1640    5.8606    0.0000 C   0  0  0  0  0  0  0  0  0  0  0  0
    1.0860    7.1597    0.0000 C   0  0  0  0  0  0  0  0  0  0  0  0
    0.3360    8.4587    0.0000 N   0  0  0  0  0  0  0  0  0  0  0  0
    1.0860    9.7578    0.0000 C   0  0  0  0  0  0  0  0  0  0  0  0
    2.5860    9.7578    0.0000 C   0  0  0  0  0  0  0  0  0  0  0  0
    3.3360    8.4587    0.0000 O   0  0  0  0  0  0  0  0  0  0  0  0
    3.3360   11.0568    0.0000 C   0  0  0  0  0  0  0  0  0  0  0  0
    4.8360   11.0568    0.0000 C   0  0  0  0  0  0  0  0  0  0  0  0
    5.5860    9.7578    0.0000 C   0  0  0  0  0  0  0  0  0  0  0  0
    7.0860    9.7578    0.0000 C   0  0  0  0  0  0  0  0  0  0  0  0
    7.8360    8.4587    0.0000 C   0  0  0  0  0  0  0  0  0  0  0  0
    7.0860    7.1597    0.0000 C   0  0  0  0  0  0  0  0  0  0  0  0
    5.5860    7.1597    0.0000 C   0  0  0  0  0  0  0  0  0  0  0  0
    4.8360    8.4587    0.0000 C   0  0  0  0  0  0  0  0  0  0  0  0
    2.5860   12.3558    0.0000 N   0  0  0  0  0  0  0  0  0  0  0  0
    3.3360   13.6549    0.0000 C   0  0  0  0  0  0  0  0  0  0  0  0
    4.8360   13.6549    0.0000 O   0  0  0  0  0  0  0  0  0  0  0  0
    2.5860   14.9539    0.0000 C   0  0  0  0  0  0  0  0  0  0  0  0
    3.3360   16.2529    0.0000 C   0  0  0  0  0  0  0  0  0  0  0  0
    2.7259   17.6233    0.0000 C   0  0  0  0  0  0  0  0  0  0  0  0
    3.8406   18.6270    0.0000 C   0  0  0  0  0  0  0  0  0  0  0  0
    5.1397   17.8770    0.0000 C   0  0  0  0  0  0  0  0  0  0  0  0
    4.8278   16.4097    0.0000 C   0  0  0  0  0  0  0  0  0  0  0  0
   -1.1640    8.4587    0.0000 C   0  0  0  0  0  0  0  0  0  0  0  0
   -1.9140    7.1597    0.0000 O   0  0  0  0  0  0  0  0  0  0  0  0
   -1.9140    9.7578    0.0000 C   0  0  0  0  0  0  0  0  0  0  0  0
   -1.1640   11.0568    0.0000 C   0  0  0  0  0  0  0  0  0  0  0  0
   -1.9140   12.3558    0.0000 C   0  0  0  0  0  0  0  0  0  0  0  0
   -3.4140   12.3558    0.0000 C   0  0  0  0  0  0  0  0  0  0  0  0
   -4.1640   13.6549    0.0000 C   0  0  0  0  0  0  0  0  0  0  0  0
   -3.4140   14.9539    0.0000 C   0  0  0  0  0  0  0  0  0  0  0  0
   -1.9140   14.9539    0.0000 C   0  0  0  0  0  0  0  0  0  0  0  0
   -1.1640   13.6549    0.0000 C   0  0  0  0  0  0  0  0  0  0  0  0
   -3.4140    9.7578    0.0000 N   0  0  0  0  0  0  0  0  0  0  0  0
   -4.1640    8.4587    0.0000 C   0  0  0  0  0  0  0  0  0  0  0  0
   -3.4140    7.1597    0.0000 O   0  0  0  0  0  0  0  0  0  0  0  0
   -5.6640    8.4587    0.0000 C   0  0  0  0  0  0  0  0  0  0  0  0
   -6.4140    9.7578    0.0000 C   0  0  0  0  0  0  0  0  0  0  0  0
   -7.9140    9.7578    0.0000 C   0  0  0  0  0  0  0  0  0  0  0  0
   -8.6640    8.4587    0.0000 C   0  0  0  0  0  0  0  0  0  0  0  0
  -10.1640    8.4587    0.0000 C   0  0  0  0  0  0  0  0  0  0  0  0
  -10.9140    9.7578    0.0000 C   0  0  0  0  0  0  0  0  0  0  0  0
  -10.1640   11.0568    0.0000 C   0  0  0  0  0  0  0  0  0  0  0  0
   -8.6640   11.0568    0.0000 C   0  0  0  0  0  0  0  0  0  0  0  0
   -6.4140    7.1597    0.0000 N   0  0  0  0  0  0  0  0  0  0  0  0
   -5.6640    5.8606    0.0000 C   0  0  0  0  0  0  0  0  0  0  0  0
   -4.1640    5.8606    0.0000 O   0  0  0  0  0  0  0  0  0  0  0  0
   -6.4140    4.5616    0.0000 C   0  0  0  0  0  0  0  0  0  0  0  0
   -7.9140    4.5616    0.0000 C   0  0  0  0  0  0  0  0  0  0  0  0
   -8.6640    3.2626    0.0000 C   0  0  0  0  0  0  0  0  0  0  0  0
   -7.9140    1.9635    0.0000 C   0  0  0  0  0  0  0  0  0  0  0  0
   -8.6640    0.6645    0.0000 C   0  0  0  0  0  0  0  0  0  0  0  0
  -10.1640    0.6645    0.0000 C   0  0  0  0  0  0  0  0  0  0  0  0
  -10.9140    1.9635    0.0000 C   0  0  0  0  0  0  0  0  0  0  0  0
  -10.1640    3.2626    0.0000 C   0  0  0  0  0  0  0  0  0  0  0  0
   -5.6640    3.2626    0.0000 N   0  0  0  0  0  0  0  0  0  0  0  0
   -4.1640    3.2626    0.0000 C   0  0  0  0  0  0  0  0  0  0  0  0
   -3.4140    4.5616    0.0000 O   0  0  0  0  0  0  0  0  0  0  0  0
   -3.4140    1.9635    0.0000 O   0  0  0  0  0  0  0  0  0  0  0  0
   -1.9140    1.9635    0.0000 C   0  0  0  0  0  0  0  0  0  0  0  0
   -1.0323    3.1771    0.0000 C   0  0  0  0  0  0  0  0  0  0  0  0
    0.3943    2.7135    0.0000 O   0  0  0  0  0  0  0  0  0  0  0  0
    0.3943    1.2135    0.0000 C   0  0  0  0  0  0  0  0  0  0  0  0
    1.2760    0.0000    0.0000 O   0  0  0  0  0  0  0  0  0  0  0  0
    0.3943   -1.2135    0.0000 C   0  0  0  0  0  0  0  0  0  0  0  0
   -1.0323   -0.7500    0.0000 C   0  0  0  0  0  0  0  0  0  0  0  0
   -1.0323    0.7500    0.0000 C   0  0  0  0  0  0  0  0  0  0  0  0
  1  2  1  0
  2  3  1  0
  2  4  1  0
  4  5  1  0
  5  6  1  0
  6  7  1  0
  7  8  1  0
  7  9  1  0
  9 10  1  0
 10 11  1  0
 11 12  2  0
 12 13  1  0
 13 14  2  0
 14 15  1  0
 15 16  2  0
  9 17  1  0
 17 18  1  0
 18 19  2  0
 18 20  1  0
 20 21  1  0
 21 22  1  0
 22 23  1  0
 23 24  1  0
 24 25  1  0
  5 26  1  0
 26 27  2  0
 26 28  1  0
 28 29  1  0
 29 30  1  0
 30 31  2  0
 31 32  1  0
 32 33  2  0
 33 34  1  0
 34 35  2  0
 28 36  1  0
 36 37  1  0
 37 38  2  0
 37 39  1  0
 39 40  1  0
 40 41  1  0
 41 42  2  0
 42 43  1  0
 43 44  2  0
 44 45  1  0
 45 46  2  0
 39 47  1  0
 47 48  1  0
 48 49  2  0
 48 50  1  0
 50 51  1  0
 51 52  1  0
 52 53  2  0
 53 54  1  0
 54 55  2  0
 55 56  1  0
 56 57  2  0
 50 58  1  0
 58 59  1  0
 59 60  2  0
 59 61  1  0
 61 62  1  0
 62 63  1  0
 63 64  1  0
 64 65  1  0
 65 66  1  0
 66 67  1  0
 67 68  1  0
 68 69  1  0
 16 11  1  0
 25 21  1  0
 35 30  1  0
 46 41  1  0
 57 52  1  0
 69 62  1  0
 69 65  1  0
M  END
>  <Title>  (143) 
idAAFMgen4

$$$$

     RDKit          2D

 58 64  0  0  0  0  0  0  0  0999 V2000
   -1.8760    4.4687    0.0000 O   0  0  0  0  0  0  0  0  0  0  0  0
   -3.2463    3.8586    0.0000 C   0  0  0  0  0  0  0  0  0  0  0  0
   -4.4598    4.7402    0.0000 N   0  0  0  0  0  0  0  0  0  0  0  0
   -4.3030    6.2320    0.0000 C   0  0  0  0  0  0  0  0  0  0  0  0
   -5.5165    7.1137    0.0000 C   0  0  0  0  0  0  0  0  0  0  0  0
   -6.5955    6.0717    0.0000 C   0  0  0  0  0  0  0  0  0  0  0  0
   -8.0374    6.4852    0.0000 C   0  0  0  0  0  0  0  0  0  0  0  0
   -9.1164    5.4432    0.0000 C   0  0  0  0  0  0  0  0  0  0  0  0
   -8.7536    3.9877    0.0000 C   0  0  0  0  0  0  0  0  0  0  0  0
   -7.3117    3.5743    0.0000 C   0  0  0  0  0  0  0  0  0  0  0  0
   -6.2327    4.6163    0.0000 C   0  0  0  0  0  0  0  0  0  0  0  0
   -6.3553    8.3573    0.0000 C   0  0  0  0  0  0  0  0  0  0  0  0
   -4.8590    8.4619    0.0000 C   0  0  0  0  0  0  0  0  0  0  0  0
   -3.4031    2.3668    0.0000 N   0  0  0  0  0  0  0  0  0  0  0  0
   -2.1895    1.4851    0.0000 C   0  0  0  0  0  0  0  0  0  0  0  0
   -0.8192    2.0952    0.0000 C   0  0  0  0  0  0  0  0  0  0  0  0
    0.3943    1.2135    0.0000 C   0  0  0  0  0  0  0  0  0  0  0  0
    1.2760    0.0000    0.0000 C   0  0  0  0  0  0  0  0  0  0  0  0
    0.3943   -1.2135    0.0000 C   0  0  0  0  0  0  0  0  0  0  0  0
   -1.0323   -0.7500    0.0000 C   0  0  0  0  0  0  0  0  0  0  0  0
   -2.3463   -0.0067    0.0000 C   0  0  0  0  0  0  0  0  0  0  0  0
   -1.0323    0.7500    0.0000 C   0  0  0  0  0  0  0  0  0  0  0  0
   -2.2458    1.6317    0.0000 C   0  0  0  0  0  0  0  0  0  0  0  0
   -3.6161    1.0216    0.0000 O   0  0  0  0  0  0  0  0  0  0  0  0
   -2.0890    3.1235    0.0000 N   0  0  0  0  0  0  0  0  0  0  0  0
   -3.3025    4.0051    0.0000 C   0  0  0  0  0  0  0  0  0  0  0  0
   -3.1458    5.4969    0.0000 C   0  0  0  0  0  0  0  0  0  0  0  0
   -4.3593    6.3786    0.0000 C   0  0  0  0  0  0  0  0  0  0  0  0
   -4.2025    7.8704    0.0000 C   0  0  0  0  0  0  0  0  0  0  0  0
   -5.4160    8.7521    0.0000 C   0  0  0  0  0  0  0  0  0  0  0  0
   -6.7863    8.1420    0.0000 C   0  0  0  0  0  0  0  0  0  0  0  0
   -6.9431    6.6502    0.0000 C   0  0  0  0  0  0  0  0  0  0  0  0
   -5.7296    5.7685    0.0000 C   0  0  0  0  0  0  0  0  0  0  0  0
   -4.6729    3.3950    0.0000 C   0  0  0  0  0  0  0  0  0  0  0  0
   -4.8297    1.9033    0.0000 O   0  0  0  0  0  0  0  0  0  0  0  0
   -5.8864    4.2767    0.0000 N   0  0  0  0  0  0  0  0  0  0  0  0
   -7.2567    3.6666    0.0000 C   0  0  0  0  0  0  0  0  0  0  0  0
   -8.4702    4.5483    0.0000 C   0  0  0  0  0  0  0  0  0  0  0  0
   -9.8406    3.9382    0.0000 C   0  0  0  0  0  0  0  0  0  0  0  0
  -11.0541    4.8199    0.0000 C   0  0  0  0  0  0  0  0  0  0  0  0
  -12.4244    4.2098    0.0000 C   0  0  0  0  0  0  0  0  0  0  0  0
  -12.5812    2.7180    0.0000 C   0  0  0  0  0  0  0  0  0  0  0  0
  -11.3677    1.8363    0.0000 C   0  0  0  0  0  0  0  0  0  0  0  0
   -9.9973    2.4464    0.0000 C   0  0  0  0  0  0  0  0  0  0  0  0
   -7.4135    2.1748    0.0000 C   0  0  0  0  0  0  0  0  0  0  0  0
   -6.2000    1.2931    0.0000 O   0  0  0  0  0  0  0  0  0  0  0  0
   -8.7838    1.5647    0.0000 N   0  0  0  0  0  0  0  0  0  0  0  0
   -8.9406    0.0729    0.0000 C   0  0  0  0  0  0  0  0  0  0  0  0
  -10.3109   -0.5372    0.0000 C   0  0  0  0  0  0  0  0  0  0  0  0
  -10.4677   -2.0290    0.0000 C   0  0  0  0  0  0  0  0  0  0  0  0
  -11.8380   -2.6391    0.0000 C   0  0  0  0  0  0  0  0  0  0  0  0
  -11.9948   -4.1308    0.0000 C   0  0  0  0  0  0  0  0  0  0  0  0
  -10.7813   -5.0125    0.0000 C   0  0  0  0  0  0  0  0  0  0  0  0
   -9.4110   -4.4024    0.0000 C   0  0  0  0  0  0  0  0  0  0  0  0
   -9.2542   -2.9106    0.0000 C   0  0  0  0  0  0  0  0  0  0  0  0
   -7.7271   -0.8087    0.0000 C   0  0  0  0  0  0  0  0  0  0  0  0
   -6.3568   -0.1986    0.0000 O   0  0  0  0  0  0  0  0  0  0  0  0
   -7.8839   -2.3005    0.0000 O   0  0  0  0  0  0  0  0  0  0  0  0
  1  2  2  0
  2  3  1  0
  3  4  1  0
  4  5  1  0
  5  6  1  0
  6  7  2  0
  7  8  1  0
  8  9  2  0
  9 10  1  0
 10 11  2  0
  5 12  1  0
 12 13  1  0
  2 14  1  0
 14 15  1  0
 15 16  1  0
 16 17  1  0
 17 18  1  0
 18 19  1  0
 19 20  1  0
 20 21  1  0
 20 22  1  0
 22 23  1  0
 23 24  2  0
 23 25  1  0
 25 26  1  0
 26 27  1  0
 27 28  1  0
 28 29  2  0
 29 30  1  0
 30 31  2  0
 31 32  1  0
 32 33  2  0
 26 34  1  0
 34 35  2  0
 34 36  1  0
 36 37  1  0
 37 38  1  0
 38 39  1  0
 39 40  2  0
 40 41  1  0
 41 42  2  0
 42 43  1  0
 43 44  2  0
 37 45  1  0
 45 46  2  0
 45 47  1  0
 47 48  1  0
 48 49  1  0
 49 50  1  0
 50 51  2  0
 51 52  1  0
 52 53  2  0
 53 54  1  0
 54 55  2  0
 48 56  1  0
 56 57  2  0
 56 58  1  0
 13  5  1  0
 21 15  1  0
 33 28  1  0
 44 39  1  0
 55 50  1  0
 11  6  1  0
 22 17  1  0
M  END
>  <Title>  (144) 
idAAFNgen4

$$$$

     RDKit          2D

 51 55  0  0  0  0  0  0  0  0999 V2000
   -0.9125   -2.9751    0.0000 C   0  0  0  0  0  0  0  0  0  0  0  0
   -2.3797   -3.2870    0.0000 C   0  0  0  0  0  0  0  0  0  0  0  0
   -1.6642   -4.4318    0.0000 C   0  0  0  0  0  0  0  0  0  0  0  0
   -2.5365   -1.7952    0.0000 C   0  0  0  0  0  0  0  0  0  0  0  0
   -4.0037   -1.4834    0.0000 C   0  0  0  0  0  0  0  0  0  0  0  0
   -4.7537   -2.7824    0.0000 C   0  0  0  0  0  0  0  0  0  0  0  0
   -3.7500   -3.8971    0.0000 C   0  0  0  0  0  0  0  0  0  0  0  0
   -4.9635   -4.7788    0.0000 C   0  0  0  0  0  0  0  0  0  0  0  0
   -3.0000   -5.1962    0.0000 C   0  0  0  0  0  0  0  0  0  0  0  0
   -3.7500   -6.4952    0.0000 C   0  0  0  0  0  0  0  0  0  0  0  0
   -5.2500   -6.4952    0.0000 C   0  0  0  0  0  0  0  0  0  0  0  0
   -6.1317   -7.7087    0.0000 C   0  0  0  0  0  0  0  0  0  0  0  0
   -7.5583   -7.2452    0.0000 C   0  0  0  0  0  0  0  0  0  0  0  0
   -7.5583   -5.7452    0.0000 C   0  0  0  0  0  0  0  0  0  0  0  0
   -6.1317   -5.2817    0.0000 C   0  0  0  0  0  0  0  0  0  0  0  0
   -1.5000   -5.1962    0.0000 C   0  0  0  0  0  0  0  0  0  0  0  0
   -0.7500   -6.4952    0.0000 O   0  0  0  0  0  0  0  0  0  0  0  0
   -0.7500   -3.8971    0.0000 N   0  0  0  0  0  0  0  0  0  0  0  0
    0.7500   -3.8971    0.0000 C   0  0  0  0  0  0  0  0  0  0  0  0
    1.5000   -2.5981    0.0000 C   0  0  0  0  0  0  0  0  0  0  0  0
    0.7500   -1.2990    0.0000 C   0  0  0  0  0  0  0  0  0  0  0  0
    1.5000    0.0000    0.0000 C   0  0  0  0  0  0  0  0  0  0  0  0
    0.7500    1.2990    0.0000 C   0  0  0  0  0  0  0  0  0  0  0  0
   -0.7500    1.2990    0.0000 C   0  0  0  0  0  0  0  0  0  0  0  0
   -1.5000    0.0000    0.0000 C   0  0  0  0  0  0  0  0  0  0  0  0
   -0.7500   -1.2990    0.0000 C   0  0  0  0  0  0  0  0  0  0  0  0
    1.5000   -5.1962    0.0000 C   0  0  0  0  0  0  0  0  0  0  0  0
    3.0000   -5.1962    0.0000 O   0  0  0  0  0  0  0  0  0  0  0  0
    0.7500   -6.4952    0.0000 N   0  0  0  0  0  0  0  0  0  0  0  0
    1.5000   -7.7942    0.0000 C   0  0  0  0  0  0  0  0  0  0  0  0
    0.7500   -9.0933    0.0000 C   0  0  0  0  0  0  0  0  0  0  0  0
    1.5000  -10.3923    0.0000 C   0  0  0  0  0  0  0  0  0  0  0  0
    0.7500  -11.6913    0.0000 C   0  0  0  0  0  0  0  0  0  0  0  0
    1.5000  -12.9904    0.0000 C   0  0  0  0  0  0  0  0  0  0  0  0
    3.0000  -12.9904    0.0000 C   0  0  0  0  0  0  0  0  0  0  0  0
    3.7500  -11.6913    0.0000 C   0  0  0  0  0  0  0  0  0  0  0  0
    3.0000  -10.3923    0.0000 C   0  0  0  0  0  0  0  0  0  0  0  0
    3.0000   -7.7942    0.0000 C   0  0  0  0  0  0  0  0  0  0  0  0
    3.7500   -6.4952    0.0000 O   0  0  0  0  0  0  0  0  0  0  0  0
    3.7500   -9.0933    0.0000 N   0  0  0  0  0  0  0  0  0  0  0  0
    5.2500   -9.0933    0.0000 C   0  0  0  0  0  0  0  0  0  0  0  0
    6.0000  -10.3923    0.0000 C   0  0  0  0  0  0  0  0  0  0  0  0
    7.5000  -10.3923    0.0000 C   0  0  0  0  0  0  0  0  0  0  0  0
    8.2500  -11.6913    0.0000 C   0  0  0  0  0  0  0  0  0  0  0  0
    9.7500  -11.6913    0.0000 C   0  0  0  0  0  0  0  0  0  0  0  0
   10.5000  -10.3923    0.0000 C   0  0  0  0  0  0  0  0  0  0  0  0
    9.7500   -9.0933    0.0000 C   0  0  0  0  0  0  0  0  0  0  0  0
    8.2500   -9.0933    0.0000 C   0  0  0  0  0  0  0  0  0  0  0  0
    6.0000   -7.7942    0.0000 C   0  0  0  0  0  0  0  0  0  0  0  0
    5.2500   -6.4952    0.0000 O   0  0  0  0  0  0  0  0  0  0  0  0
    7.5000   -7.7942    0.0000 O   0  0  0  0  0  0  0  0  0  0  0  0
  1  2  1  0
  2  3  1  0
  2  4  1  0
  4  5  1  0
  5  6  1  0
  6  7  1  0
  7  8  1  0
  7  9  1  0
  9 10  1  0
 10 11  1  0
 11 12  1  0
 12 13  1  0
 13 14  1  0
 14 15  1  0
  9 16  1  0
 16 17  2  0
 16 18  1  0
 18 19  1  0
 19 20  1  0
 20 21  1  0
 21 22  2  0
 22 23  1  0
 23 24  2  0
 24 25  1  0
 25 26  2  0
 19 27  1  0
 27 28  2  0
 27 29  1  0
 29 30  1  0
 30 31  1  0
 31 32  1  0
 32 33  2  0
 33 34  1  0
 34 35  2  0
 35 36  1  0
 36 37  2  0
 30 38  1  0
 38 39  2  0
 38 40  1  0
 40 41  1  0
 41 42  1  0
 42 43  1  0
 43 44  2  0
 44 45  1  0
 45 46  2  0
 46 47  1  0
 47 48  2  0
 41 49  1  0
 49 50  2  0
 49 51  1  0
  7  2  1  0
 15 11  1  0
 26 21  1  0
 37 32  1  0
 48 43  1  0
M  END
>  <Title>  (145) 
idAAFOgen4

$$$$

     RDKit          2D

 30 34  0  0  0  0  0  0  0  0999 V2000
   -1.8760    4.4687    0.0000 O   0  0  0  0  0  0  0  0  0  0  0  0
   -3.2463    3.8586    0.0000 C   0  0  0  0  0  0  0  0  0  0  0  0
   -4.4598    4.7402    0.0000 N   0  0  0  0  0  0  0  0  0  0  0  0
   -4.3030    6.2320    0.0000 C   0  0  0  0  0  0  0  0  0  0  0  0
   -5.5165    7.1137    0.0000 C   0  0  0  0  0  0  0  0  0  0  0  0
   -6.5955    6.0717    0.0000 C   0  0  0  0  0  0  0  0  0  0  0  0
   -8.0374    6.4852    0.0000 C   0  0  0  0  0  0  0  0  0  0  0  0
   -9.1164    5.4432    0.0000 C   0  0  0  0  0  0  0  0  0  0  0  0
   -8.7536    3.9877    0.0000 C   0  0  0  0  0  0  0  0  0  0  0  0
   -7.3117    3.5743    0.0000 C   0  0  0  0  0  0  0  0  0  0  0  0
   -6.2327    4.6163    0.0000 C   0  0  0  0  0  0  0  0  0  0  0  0
   -6.3553    8.3573    0.0000 C   0  0  0  0  0  0  0  0  0  0  0  0
   -4.8590    8.4619    0.0000 C   0  0  0  0  0  0  0  0  0  0  0  0
   -3.4031    2.3668    0.0000 N   0  0  0  0  0  0  0  0  0  0  0  0
   -2.1895    1.4851    0.0000 C   0  0  0  0  0  0  0  0  0  0  0  0
   -0.8192    2.0952    0.0000 C   0  0  0  0  0  0  0  0  0  0  0  0
    0.3943    1.2135    0.0000 C   0  0  0  0  0  0  0  0  0  0  0  0
    1.2760    0.0000    0.0000 C   0  0  0  0  0  0  0  0  0  0  0  0
    0.3943   -1.2135    0.0000 C   0  0  0  0  0  0  0  0  0  0  0  0
   -1.0323   -0.7500    0.0000 C   0  0  0  0  0  0  0  0  0  0  0  0
   -2.3463   -0.0067    0.0000 C   0  0  0  0  0  0  0  0  0  0  0  0
   -1.0323    0.7500    0.0000 N   0  0  0  0  0  0  0  0  0  0  0  0
   -2.2458    1.6317    0.0000 C   0  0  0  0  0  0  0  0  0  0  0  0
   -2.0890    3.1235    0.0000 C   0  0  0  0  0  0  0  0  0  0  0  0
   -3.3025    4.0051    0.0000 C   0  0  0  0  0  0  0  0  0  0  0  0
   -3.1458    5.4969    0.0000 C   0  0  0  0  0  0  0  0  0  0  0  0
   -4.3593    6.3786    0.0000 C   0  0  0  0  0  0  0  0  0  0  0  0
   -5.7296    5.7685    0.0000 C   0  0  0  0  0  0  0  0  0  0  0  0
   -5.8864    4.2767    0.0000 C   0  0  0  0  0  0  0  0  0  0  0  0
   -4.6729    3.3950    0.0000 C   0  0  0  0  0  0  0  0  0  0  0  0
  1  2  2  0
  2  3  1  0
  3  4  1  0
  4  5  1  0
  5  6  1  0
  6  7  2  0
  7  8  1  0
  8  9  2  0
  9 10  1  0
 10 11  2  0
  5 12  1  0
 12 13  1  0
  2 14  1  0
 14 15  1  0
 15 16  1  0
 16 17  1  0
 17 18  1  0
 18 19  1  0
 19 20  1  0
 20 21  1  0
 20 22  1  0
 22 23  1  0
 23 24  1  0
 24 25  1  0
 25 26  2  0
 26 27  1  0
 27 28  2  0
 28 29  1  0
 29 30  2  0
 13  5  1  0
 21 15  1  0
 30 25  1  0
 11  6  1  0
 22 17  1  0
M  END
>  <Title>  (146) 
idAAFPgen4

$$$$

     RDKit          2D

 26 30  0  0  0  0  0  0  0  0999 V2000
   -0.7500   -3.8971    0.0000 O   0  0  0  0  0  0  0  0  0  0  0  0
    0.7500   -3.8971    0.0000 C   0  0  0  0  0  0  0  0  0  0  0  0
    1.5000   -5.1962    0.0000 N   0  0  0  0  0  0  0  0  0  0  0  0
    0.7500   -6.4952    0.0000 C   0  0  0  0  0  0  0  0  0  0  0  0
   -0.7500   -6.4952    0.0000 C   0  0  0  0  0  0  0  0  0  0  0  0
   -1.5000   -7.7942    0.0000 C   0  0  0  0  0  0  0  0  0  0  0  0
   -0.7500   -9.0933    0.0000 C   0  0  0  0  0  0  0  0  0  0  0  0
   -1.5000  -10.3923    0.0000 C   0  0  0  0  0  0  0  0  0  0  0  0
   -3.0000  -10.3923    0.0000 C   0  0  0  0  0  0  0  0  0  0  0  0
   -3.7500  -11.6913    0.0000 C   0  0  0  0  0  0  0  0  0  0  0  0
   -3.0000  -12.9904    0.0000 C   0  0  0  0  0  0  0  0  0  0  0  0
   -1.5000  -12.9904    0.0000 C   0  0  0  0  0  0  0  0  0  0  0  0
   -0.7500  -11.6913    0.0000 C   0  0  0  0  0  0  0  0  0  0  0  0
    0.7500   -9.0933    0.0000 C   0  0  0  0  0  0  0  0  0  0  0  0
    1.5000   -7.7942    0.0000 C   0  0  0  0  0  0  0  0  0  0  0  0
    1.5000   -2.5981    0.0000 N   0  0  0  0  0  0  0  0  0  0  0  0
    0.7500   -1.2990    0.0000 C   0  0  0  0  0  0  0  0  0  0  0  0
    1.5000    0.0000    0.0000 C   0  0  0  0  0  0  0  0  0  0  0  0
    0.7500    1.2990    0.0000 C   0  0  0  0  0  0  0  0  0  0  0  0
   -0.7500    1.2990    0.0000 C   0  0  0  0  0  0  0  0  0  0  0  0
   -1.5000    0.0000    0.0000 C   0  0  0  0  0  0  0  0  0  0  0  0
    1.7010   -0.7500    0.0000 C   0  0  0  0  0  0  0  0  0  0  0  0
    3.0000   -0.0000    0.0000 C   0  0  0  0  0  0  0  0  0  0  0  0
    2.2500    1.2990    0.0000 C   0  0  0  0  0  0  0  0  0  0  0  0
    2.2500   -1.2990    0.0000 C   0  0  0  0  0  0  0  0  0  0  0  0
   -0.7500   -1.2990    0.0000 C   0  0  0  0  0  0  0  0  0  0  0  0
  1  2  2  0
  2  3  1  0
  3  4  1  0
  4  5  2  0
  5  6  1  0
  6  7  2  0
  7  8  1  0
  8  9  2  0
  9 10  1  0
 10 11  2  0
 11 12  1  0
 12 13  2  0
  7 14  1  0
 14 15  2  0
  2 16  1  0
 16 17  1  0
 17 18  1  0
 18 19  1  0
 19 20  1  0
 20 21  1  0
 21 22  1  0
 22 23  1  0
 23 24  1  0
 23 25  1  0
 21 26  1  0
 15  4  1  0
 25 17  1  0
 13  8  1  0
 26 17  1  0
 24 19  1  0
M  END
>  <Title>  (147) 
idAAFQgen4

$$$$

     RDKit          2D

 25 27  0  0  0  0  0  0  0  0999 V2000
    3.0000    0.0000    0.0000 C   0  0  0  0  0  0  0  0  0  0  0  0
    1.5000    0.0000    0.0000 C   0  0  0  0  0  0  0  0  0  0  0  0
    0.7500   -1.2990    0.0000 C   0  0  0  0  0  0  0  0  0  0  0  0
   -0.7500   -1.2990    0.0000 C   0  0  0  0  0  0  0  0  0  0  0  0
   -1.5000    0.0000    0.0000 C   0  0  0  0  0  0  0  0  0  0  0  0
   -3.0000    0.0000    0.0000 C   0  0  0  0  0  0  0  0  0  0  0  0
   -3.7500    1.2990    0.0000 N   0  0  0  0  0  0  0  0  0  0  0  0
   -5.2500    1.2990    0.0000 C   0  0  0  0  0  0  0  0  0  0  0  0
   -6.0000    0.0000    0.0000 O   0  0  0  0  0  0  0  0  0  0  0  0
   -6.0000    2.5981    0.0000 C   0  0  0  0  0  0  0  0  0  0  0  0
   -5.2500    3.8971    0.0000 C   0  0  0  0  0  0  0  0  0  0  0  0
   -6.0000    5.1962    0.0000 C   0  0  0  0  0  0  0  0  0  0  0  0
   -7.5000    5.1962    0.0000 C   0  0  0  0  0  0  0  0  0  0  0  0
   -8.2500    3.8971    0.0000 C   0  0  0  0  0  0  0  0  0  0  0  0
   -9.7500    3.8971    0.0000 C   0  0  0  0  0  0  0  0  0  0  0  0
  -10.5000    5.1962    0.0000 C   0  0  0  0  0  0  0  0  0  0  0  0
  -12.0000    5.1962    0.0000 C   0  0  0  0  0  0  0  0  0  0  0  0
  -12.7500    6.4952    0.0000 C   0  0  0  0  0  0  0  0  0  0  0  0
  -12.7500    3.8971    0.0000 C   0  0  0  0  0  0  0  0  0  0  0  0
  -14.2500    3.8971    0.0000 C   0  0  0  0  0  0  0  0  0  0  0  0
  -12.0000    2.5981    0.0000 N   0  0  0  0  0  0  0  0  0  0  0  0
  -10.5000    2.5981    0.0000 N   0  0  0  0  0  0  0  0  0  0  0  0
   -7.5000    2.5981    0.0000 C   0  0  0  0  0  0  0  0  0  0  0  0
   -0.7500    1.2990    0.0000 C   0  0  0  0  0  0  0  0  0  0  0  0
    0.7500    1.2990    0.0000 C   0  0  0  0  0  0  0  0  0  0  0  0
  1  2  1  0
  2  3  2  0
  3  4  1  0
  4  5  2  0
  5  6  1  0
  6  7  1  0
  7  8  1  0
  8  9  2  0
  8 10  1  0
 10 11  2  0
 11 12  1  0
 12 13  2  0
 13 14  1  0
 14 15  1  0
 15 16  2  0
 16 17  1  0
 17 18  1  0
 17 19  2  0
 19 20  1  0
 19 21  1  0
 21 22  2  0
 14 23  2  0
  5 24  1  0
 24 25  2  0
 25  2  1  0
 23 10  1  0
 22 15  1  0
M  END
>  <Title>  (148) 
idAAFRgen4

$$$$

     RDKit          2D

 54 59  0  0  0  0  0  0  0  0999 V2000
   -6.8817   -0.6094    0.0000 O   0  0  0  0  0  0  0  0  0  0  0  0
   -6.4934   -2.0583    0.0000 C   0  0  0  0  0  0  0  0  0  0  0  0
   -7.5541   -3.1189    0.0000 N   0  0  0  0  0  0  0  0  0  0  0  0
   -9.0030   -2.7307    0.0000 C   0  0  0  0  0  0  0  0  0  0  0  0
  -10.0637   -3.7913    0.0000 C   0  0  0  0  0  0  0  0  0  0  0  0
   -9.2033   -5.0201    0.0000 C   0  0  0  0  0  0  0  0  0  0  0  0
   -7.7090   -4.8893    0.0000 C   0  0  0  0  0  0  0  0  0  0  0  0
   -6.8486   -6.1181    0.0000 C   0  0  0  0  0  0  0  0  0  0  0  0
   -7.4826   -7.4775    0.0000 C   0  0  0  0  0  0  0  0  0  0  0  0
   -8.9769   -7.6083    0.0000 C   0  0  0  0  0  0  0  0  0  0  0  0
   -9.8372   -6.3795    0.0000 C   0  0  0  0  0  0  0  0  0  0  0  0
  -11.4231   -4.4253    0.0000 C   0  0  0  0  0  0  0  0  0  0  0  0
  -11.2924   -2.9310    0.0000 C   0  0  0  0  0  0  0  0  0  0  0  0
   -5.0446   -2.4465    0.0000 N   0  0  0  0  0  0  0  0  0  0  0  0
   -3.9839   -1.3858    0.0000 C   0  0  0  0  0  0  0  0  0  0  0  0
   -4.5579    0.0000    0.0000 C   0  0  0  0  0  0  0  0  0  0  0  0
   -3.9839    1.3858    0.0000 C   0  0  0  0  0  0  0  0  0  0  0  0
   -2.5981    1.9598    0.0000 C   0  0  0  0  0  0  0  0  0  0  0  0
   -1.2123    1.3858    0.0000 C   0  0  0  0  0  0  0  0  0  0  0  0
   -0.6382    0.0000    0.0000 C   0  0  0  0  0  0  0  0  0  0  0  0
   -1.2123   -1.3858    0.0000 C   0  0  0  0  0  0  0  0  0  0  0  0
   -2.5981   -1.9598    0.0000 C   0  0  0  0  0  0  0  0  0  0  0  0
   -2.5981   -3.4598    0.0000 C   0  0  0  0  0  0  0  0  0  0  0  0
   -3.8971   -4.2098    0.0000 O   0  0  0  0  0  0  0  0  0  0  0  0
   -1.2990   -4.2098    0.0000 N   0  0  0  0  0  0  0  0  0  0  0  0
   -1.2990   -5.7098    0.0000 C   0  0  0  0  0  0  0  0  0  0  0  0
   -2.5981   -6.4598    0.0000 C   0  0  0  0  0  0  0  0  0  0  0  0
   -2.5981   -7.9598    0.0000 C   0  0  0  0  0  0  0  0  0  0  0  0
   -3.8971   -8.7098    0.0000 C   0  0  0  0  0  0  0  0  0  0  0  0
   -3.8971  -10.2098    0.0000 C   0  0  0  0  0  0  0  0  0  0  0  0
   -2.5981  -10.9598    0.0000 C   0  0  0  0  0  0  0  0  0  0  0  0
   -1.2990  -10.2098    0.0000 C   0  0  0  0  0  0  0  0  0  0  0  0
   -1.2990   -8.7098    0.0000 C   0  0  0  0  0  0  0  0  0  0  0  0
   -0.0000   -6.4598    0.0000 C   0  0  0  0  0  0  0  0  0  0  0  0
    1.2990   -5.7098    0.0000 O   0  0  0  0  0  0  0  0  0  0  0  0
   -0.0000   -7.9598    0.0000 N   0  0  0  0  0  0  0  0  0  0  0  0
    1.2990   -8.7098    0.0000 C   0  0  0  0  0  0  0  0  0  0  0  0
    2.5981   -7.9598    0.0000 C   0  0  0  0  0  0  0  0  0  0  0  0
    3.8971   -8.7098    0.0000 C   0  0  0  0  0  0  0  0  0  0  0  0
    3.8971  -10.2098    0.0000 C   0  0  0  0  0  0  0  0  0  0  0  0
    5.1962  -10.9598    0.0000 C   0  0  0  0  0  0  0  0  0  0  0  0
    6.4952  -10.2098    0.0000 C   0  0  0  0  0  0  0  0  0  0  0  0
    6.4952   -8.7098    0.0000 C   0  0  0  0  0  0  0  0  0  0  0  0
    5.1962   -7.9598    0.0000 C   0  0  0  0  0  0  0  0  0  0  0  0
    1.2990  -10.2098    0.0000 C   0  0  0  0  0  0  0  0  0  0  0  0
   -0.0000  -10.9598    0.0000 O   0  0  0  0  0  0  0  0  0  0  0  0
    2.5981  -10.9598    0.0000 N   0  0  0  0  0  0  0  0  0  0  0  0
    2.5981  -12.4598    0.0000 C   0  0  0  0  0  0  0  0  0  0  0  0
    3.8971  -13.2098    0.0000 C   0  0  0  0  0  0  0  0  0  0  0  0
    5.1962  -12.4598    0.0000 C   0  0  0  0  0  0  0  0  0  0  0  0
    6.4952  -13.2098    0.0000 C   0  0  0  0  0  0  0  0  0  0  0  0
    6.4952  -14.7098    0.0000 C   0  0  0  0  0  0  0  0  0  0  0  0
    5.1962  -15.4598    0.0000 C   0  0  0  0  0  0  0  0  0  0  0  0
    3.8971  -14.7098    0.0000 C   0  0  0  0  0  0  0  0  0  0  0  0
  1  2  2  0
  2  3  1  0
  3  4  1  0
  4  5  1  0
  5  6  1  0
  6  7  2  0
  7  8  1  0
  8  9  2  0
  9 10  1  0
 10 11  2  0
  5 12  1  0
 12 13  1  0
  2 14  1  0
 14 15  1  0
 15 16  1  0
 16 17  1  0
 17 18  1  0
 18 19  1  0
 19 20  1  0
 20 21  1  0
 21 22  1  0
 22 23  1  0
 23 24  2  0
 23 25  1  0
 25 26  1  0
 26 27  1  0
 27 28  1  0
 28 29  2  0
 29 30  1  0
 30 31  2  0
 31 32  1  0
 32 33  2  0
 26 34  1  0
 34 35  2  0
 34 36  1  0
 36 37  1  0
 37 38  1  0
 38 39  1  0
 39 40  2  0
 40 41  1  0
 41 42  2  0
 42 43  1  0
 43 44  2  0
 37 45  1  0
 45 46  2  0
 45 47  1  0
 47 48  1  0
 48 49  1  0
 49 50  2  0
 50 51  1  0
 51 52  2  0
 52 53  1  0
 53 54  2  0
 13  5  1  0
 22 15  1  0
 33 28  1  0
 44 39  1  0
 54 49  1  0
 11  6  1  0
M  END
>  <Title>  (149) 
idAAFSgen4

$$$$

     RDKit          2D

 68 74  0  0  0  0  0  0  0  0999 V2000
    0.3360    3.2626    0.0000 C   0  0  0  0  0  0  0  0  0  0  0  0
    1.0860    4.5616    0.0000 C   0  0  0  0  0  0  0  0  0  0  0  0
    2.5860    4.5616    0.0000 C   0  0  0  0  0  0  0  0  0  0  0  0
    0.3360    5.8606    0.0000 C   0  0  0  0  0  0  0  0  0  0  0  0
    1.0860    7.1597    0.0000 N   0  0  0  0  0  0  0  0  0  0  0  0
    0.3360    8.4587    0.0000 C   0  0  0  0  0  0  0  0  0  0  0  0
   -1.1640    8.4587    0.0000 C   0  0  0  0  0  0  0  0  0  0  0  0
   -1.9140    7.1597    0.0000 O   0  0  0  0  0  0  0  0  0  0  0  0
   -1.9140    9.7578    0.0000 C   0  0  0  0  0  0  0  0  0  0  0  0
   -1.1640   11.0568    0.0000 C   0  0  0  0  0  0  0  0  0  0  0  0
    0.3360   11.0568    0.0000 C   0  0  0  0  0  0  0  0  0  0  0  0
    1.0860    9.7578    0.0000 C   0  0  0  0  0  0  0  0  0  0  0  0
    2.5860    9.7578    0.0000 C   0  0  0  0  0  0  0  0  0  0  0  0
    3.3360   11.0568    0.0000 C   0  0  0  0  0  0  0  0  0  0  0  0
    2.5860   12.3558    0.0000 C   0  0  0  0  0  0  0  0  0  0  0  0
    1.0860   12.3558    0.0000 C   0  0  0  0  0  0  0  0  0  0  0  0
   -3.4140    9.7578    0.0000 N   0  0  0  0  0  0  0  0  0  0  0  0
   -4.1640    8.4587    0.0000 C   0  0  0  0  0  0  0  0  0  0  0  0
   -3.4140    7.1597    0.0000 O   0  0  0  0  0  0  0  0  0  0  0  0
   -5.6640    8.4587    0.0000 C   0  0  0  0  0  0  0  0  0  0  0  0
   -6.4140    9.7578    0.0000 C   0  0  0  0  0  0  0  0  0  0  0  0
   -5.6640   11.0568    0.0000 C   0  0  0  0  0  0  0  0  0  0  0  0
   -4.1640   11.0568    0.0000 C   0  0  0  0  0  0  0  0  0  0  0  0
   -3.4140   12.3558    0.0000 C   0  0  0  0  0  0  0  0  0  0  0  0
   -4.1640   13.6549    0.0000 C   0  0  0  0  0  0  0  0  0  0  0  0
   -5.6640   13.6549    0.0000 C   0  0  0  0  0  0  0  0  0  0  0  0
   -6.4140   12.3558    0.0000 C   0  0  0  0  0  0  0  0  0  0  0  0
   -6.4140    7.1597    0.0000 N   0  0  0  0  0  0  0  0  0  0  0  0
   -5.6640    5.8606    0.0000 C   0  0  0  0  0  0  0  0  0  0  0  0
   -4.1640    5.8606    0.0000 O   0  0  0  0  0  0  0  0  0  0  0  0
   -6.4140    4.5616    0.0000 C   0  0  0  0  0  0  0  0  0  0  0  0
   -7.9140    4.5616    0.0000 C   0  0  0  0  0  0  0  0  0  0  0  0
   -8.6640    5.8606    0.0000 C   0  0  0  0  0  0  0  0  0  0  0  0
   -7.9140    7.1597    0.0000 C   0  0  0  0  0  0  0  0  0  0  0  0
   -8.6640    8.4587    0.0000 C   0  0  0  0  0  0  0  0  0  0  0  0
  -10.1640    8.4587    0.0000 C   0  0  0  0  0  0  0  0  0  0  0  0
  -10.9140    7.1597    0.0000 C   0  0  0  0  0  0  0  0  0  0  0  0
  -10.1640    5.8606    0.0000 C   0  0  0  0  0  0  0  0  0  0  0  0
   -5.6640    3.2626    0.0000 N   0  0  0  0  0  0  0  0  0  0  0  0
   -4.1640    3.2626    0.0000 C   0  0  0  0  0  0  0  0  0  0  0  0
   -3.4140    4.5616    0.0000 O   0  0  0  0  0  0  0  0  0  0  0  0
   -3.4140    1.9635    0.0000 O   0  0  0  0  0  0  0  0  0  0  0  0
   -4.1640    0.6645    0.0000 C   0  0  0  0  0  0  0  0  0  0  0  0
   -5.6557    0.5077    0.0000 C   0  0  0  0  0  0  0  0  0  0  0  0
   -5.9676   -0.9595    0.0000 O   0  0  0  0  0  0  0  0  0  0  0  0
   -4.6686   -1.7095    0.0000 C   0  0  0  0  0  0  0  0  0  0  0  0
   -4.0585   -3.0798    0.0000 O   0  0  0  0  0  0  0  0  0  0  0  0
   -2.5667   -2.9231    0.0000 C   0  0  0  0  0  0  0  0  0  0  0  0
   -2.2548   -1.4558    0.0000 C   0  0  0  0  0  0  0  0  0  0  0  0
   -3.5539   -0.7058    0.0000 C   0  0  0  0  0  0  0  0  0  0  0  0
    2.5860    7.1597    0.0000 S   0  0  0  0  0  0  0  0  0  0  0  0
    2.5860    8.6597    0.0000 O   0  0  0  0  0  0  0  0  0  0  0  0
    2.5860    5.6597    0.0000 O   0  0  0  0  0  0  0  0  0  0  0  0
    4.0860    7.1597    0.0000 C   0  0  0  0  0  0  0  0  0  0  0  0
    4.8360    8.4587    0.0000 C   0  0  0  0  0  0  0  0  0  0  0  0
    6.3360    8.4587    0.0000 C   0  0  0  0  0  0  0  0  0  0  0  0
    7.0860    7.1597    0.0000 C   0  0  0  0  0  0  0  0  0  0  0  0
    8.5860    7.1597    0.0000 N   0  0  0  0  0  0  0  0  0  0  0  0
    9.3360    8.4587    0.0000 C   0  0  0  0  0  0  0  0  0  0  0  0
    8.5860    9.7578    0.0000 O   0  0  0  0  0  0  0  0  0  0  0  0
   10.8360    8.4587    0.0000 C   0  0  0  0  0  0  0  0  0  0  0  0
   11.5860    9.7578    0.0000 C   0  0  0  0  0  0  0  0  0  0  0  0
   13.0860    9.7578    0.0000 C   0  0  0  0  0  0  0  0  0  0  0  0
   13.8360    8.4587    0.0000 C   0  0  0  0  0  0  0  0  0  0  0  0
   13.0860    7.1597    0.0000 C   0  0  0  0  0  0  0  0  0  0  0  0
   11.5860    7.1597    0.0000 C   0  0  0  0  0  0  0  0  0  0  0  0
    6.3360    5.8606    0.0000 C   0  0  0  0  0  0  0  0  0  0  0  0
    4.8360    5.8606    0.0000 C   0  0  0  0  0  0  0  0  0  0  0  0
  1  2  1  0
  2  3  1  0
  2  4  1  0
  4  5  1  0
  5  6  1  0
  6  7  1  0
  7  8  1  0
  7  9  1  0
  9 10  1  0
 10 11  1  0
 11 12  2  0
 12 13  1  0
 13 14  2  0
 14 15  1  0
 15 16  2  0
  9 17  1  0
 17 18  1  0
 18 19  2  0
 18 20  1  0
 20 21  1  0
 21 22  1  0
 22 23  2  0
 23 24  1  0
 24 25  2  0
 25 26  1  0
 26 27  2  0
 20 28  1  0
 28 29  1  0
 29 30  2  0
 29 31  1  0
 31 32  1  0
 32 33  1  0
 33 34  2  0
 34 35  1  0
 35 36  2  0
 36 37  1  0
 37 38  2  0
 31 39  1  0
 39 40  1  0
 40 41  2  0
 40 42  1  0
 42 43  1  0
 43 44  1  0
 44 45  1  0
 45 46  1  0
 46 47  1  0
 47 48  1  0
 48 49  1  0
 49 50  1  0
  5 51  1  0
 51 52  2  0
 51 53  2  0
 51 54  1  0
 54 55  2  0
 55 56  1  0
 56 57  2  0
 57 58  1  0
 58 59  1  0
 59 60  2  0
 59 61  1  0
 61 62  2  0
 62 63  1  0
 63 64  2  0
 64 65  1  0
 65 66  2  0
 57 67  1  0
 67 68  2  0
 16 11  1  0
 27 22  1  0
 38 33  1  0
 50 43  1  0
 68 54  1  0
 50 46  1  0
 66 61  1  0
M  END
>  <Title>  (150) 
idAAFTgen4

$$$$

     RDKit          2D

 35 37  0  0  0  0  0  0  0  0999 V2000
    3.0000   -2.5981    0.0000 O   0  0  0  0  0  0  0  0  0  0  0  0
    3.7500   -1.2990    0.0000 C   0  0  0  0  0  0  0  0  0  0  0  0
    5.2500   -1.2990    0.0000 O   0  0  0  0  0  0  0  0  0  0  0  0
    3.0000    0.0000    0.0000 C   0  0  0  0  0  0  0  0  0  0  0  0
    1.5000    0.0000    0.0000 C   0  0  0  0  0  0  0  0  0  0  0  0
    0.7500   -1.2990    0.0000 C   0  0  0  0  0  0  0  0  0  0  0  0
   -0.7500   -1.2990    0.0000 C   0  0  0  0  0  0  0  0  0  0  0  0
   -1.5000    0.0000    0.0000 C   0  0  0  0  0  0  0  0  0  0  0  0
   -0.7500    1.2990    0.0000 C   0  0  0  0  0  0  0  0  0  0  0  0
    0.7500    1.2990    0.0000 C   0  0  0  0  0  0  0  0  0  0  0  0
    1.5000    2.5981    0.0000 C   0  0  0  0  0  0  0  0  0  0  0  0
    3.0000    2.5981    0.0000 O   0  0  0  0  0  0  0  0  0  0  0  0
    0.7500    3.8971    0.0000 N   0  0  0  0  0  0  0  0  0  0  0  0
    1.5000    5.1962    0.0000 C   0  0  0  0  0  0  0  0  0  0  0  0
    0.7500    6.4952    0.0000 C   0  0  0  0  0  0  0  0  0  0  0  0
    1.5000    7.7942    0.0000 C   0  0  0  0  0  0  0  0  0  0  0  0
    3.0000    7.7942    0.0000 C   0  0  0  0  0  0  0  0  0  0  0  0
    3.7500    9.0933    0.0000 C   0  0  0  0  0  0  0  0  0  0  0  0
    3.0000   10.3923    0.0000 C   0  0  0  0  0  0  0  0  0  0  0  0
    1.5000   10.3923    0.0000 C   0  0  0  0  0  0  0  0  0  0  0  0
    0.7500    9.0933    0.0000 C   0  0  0  0  0  0  0  0  0  0  0  0
    3.0000    5.1962    0.0000 C   0  0  0  0  0  0  0  0  0  0  0  0
    3.7500    3.8971    0.0000 O   0  0  0  0  0  0  0  0  0  0  0  0
    3.7500    6.4952    0.0000 N   0  0  0  0  0  0  0  0  0  0  0  0
    5.2500    6.4952    0.0000 C   0  0  0  0  0  0  0  0  0  0  0  0
    6.0000    7.7942    0.0000 C   0  0  0  0  0  0  0  0  0  0  0  0
    7.5000    7.7942    0.0000 C   0  0  0  0  0  0  0  0  0  0  0  0
    8.2500    6.4952    0.0000 C   0  0  0  0  0  0  0  0  0  0  0  0
    9.7500    6.4952    0.0000 C   0  0  0  0  0  0  0  0  0  0  0  0
   10.5000    7.7942    0.0000 C   0  0  0  0  0  0  0  0  0  0  0  0
    9.7500    9.0933    0.0000 C   0  0  0  0  0  0  0  0  0  0  0  0
    8.2500    9.0933    0.0000 C   0  0  0  0  0  0  0  0  0  0  0  0
    6.0000    5.1962    0.0000 C   0  0  0  0  0  0  0  0  0  0  0  0
    5.2500    3.8971    0.0000 O   0  0  0  0  0  0  0  0  0  0  0  0
    7.5000    5.1962    0.0000 O   0  0  0  0  0  0  0  0  0  0  0  0
  1  2  2  0
  2  3  1  0
  2  4  1  0
  4  5  1  0
  5  6  1  0
  6  7  1  0
  7  8  1  0
  8  9  1  0
  9 10  1  0
 10 11  1  0
 11 12  2  0
 11 13  1  0
 13 14  1  0
 14 15  1  0
 15 16  1  0
 16 17  2  0
 17 18  1  0
 18 19  2  0
 19 20  1  0
 20 21  2  0
 14 22  1  0
 22 23  2  0
 22 24  1  0
 24 25  1  0
 25 26  1  0
 26 27  1  0
 27 28  2  0
 28 29  1  0
 29 30  2  0
 30 31  1  0
 31 32  2  0
 25 33  1  0
 33 34  2  0
 33 35  1  0
 10  5  1  0
 21 16  1  0
 32 27  1  0
M  END
>  <Title>  (151) 
idAAFUgen4

$$$$

     RDKit          2D

 77 83  0  0  0  0  0  0  0  0999 V2000
   -5.3849    0.4488    0.0000 C   0  0  0  0  0  0  0  0  0  0  0  0
   -3.9583   -0.0147    0.0000 C   0  0  0  0  0  0  0  0  0  0  0  0
   -2.5317   -0.4783    0.0000 C   0  0  0  0  0  0  0  0  0  0  0  0
   -3.4948    1.4118    0.0000 C   0  0  0  0  0  0  0  0  0  0  0  0
   -4.4218   -1.4413    0.0000 N   0  0  0  0  0  0  0  0  0  0  0  0
   -3.4182   -2.5560    0.0000 C   0  0  0  0  0  0  0  0  0  0  0  0
   -1.9509   -2.2442    0.0000 O   0  0  0  0  0  0  0  0  0  0  0  0
   -3.8817   -3.9826    0.0000 C   0  0  0  0  0  0  0  0  0  0  0  0
   -5.3083   -4.4462    0.0000 C   0  0  0  0  0  0  0  0  0  0  0  0
   -5.3083   -5.9462    0.0000 C   0  0  0  0  0  0  0  0  0  0  0  0
   -3.8817   -6.4097    0.0000 C   0  0  0  0  0  0  0  0  0  0  0  0
   -3.0000   -5.1962    0.0000 C   0  0  0  0  0  0  0  0  0  0  0  0
   -1.5000   -5.1962    0.0000 C   0  0  0  0  0  0  0  0  0  0  0  0
   -0.7500   -6.4952    0.0000 O   0  0  0  0  0  0  0  0  0  0  0  0
   -0.7500   -3.8971    0.0000 N   0  0  0  0  0  0  0  0  0  0  0  0
    0.7500   -3.8971    0.0000 C   0  0  0  0  0  0  0  0  0  0  0  0
    1.5000   -2.5981    0.0000 C   0  0  0  0  0  0  0  0  0  0  0  0
    0.7500   -1.2990    0.0000 C   0  0  0  0  0  0  0  0  0  0  0  0
    1.5000    0.0000    0.0000 C   0  0  0  0  0  0  0  0  0  0  0  0
    0.7500    1.2990    0.0000 C   0  0  0  0  0  0  0  0  0  0  0  0
   -0.7500    1.2990    0.0000 C   0  0  0  0  0  0  0  0  0  0  0  0
   -1.5000    0.0000    0.0000 C   0  0  0  0  0  0  0  0  0  0  0  0
   -0.7500   -1.2990    0.0000 C   0  0  0  0  0  0  0  0  0  0  0  0
    1.5000   -5.1962    0.0000 C   0  0  0  0  0  0  0  0  0  0  0  0
    3.0000   -5.1962    0.0000 O   0  0  0  0  0  0  0  0  0  0  0  0
    0.7500   -6.4952    0.0000 C   0  0  0  0  0  0  0  0  0  0  0  0
    1.5000   -7.7942    0.0000 N   0  0  0  0  0  0  0  0  0  0  0  0
    2.9918   -7.9510    0.0000 C   0  0  0  0  0  0  0  0  0  0  0  0
    3.3037   -9.4182    0.0000 C   0  0  0  0  0  0  0  0  0  0  0  0
    2.0046  -10.1682    0.0000 C   0  0  0  0  0  0  0  0  0  0  0  0
    0.8899   -9.1645    0.0000 C   0  0  0  0  0  0  0  0  0  0  0  0
   -0.5773   -9.4764    0.0000 C   0  0  0  0  0  0  0  0  0  0  0  0
   -1.5810   -8.3617    0.0000 O   0  0  0  0  0  0  0  0  0  0  0  0
   -1.0409  -10.9030    0.0000 N   0  0  0  0  0  0  0  0  0  0  0  0
   -2.5081  -11.2149    0.0000 C   0  0  0  0  0  0  0  0  0  0  0  0
   -2.9716  -12.6415    0.0000 C   0  0  0  0  0  0  0  0  0  0  0  0
   -4.4388  -12.9533    0.0000 C   0  0  0  0  0  0  0  0  0  0  0  0
   -5.4425  -11.8386    0.0000 C   0  0  0  0  0  0  0  0  0  0  0  0
   -6.9097  -12.1505    0.0000 C   0  0  0  0  0  0  0  0  0  0  0  0
   -7.3733  -13.5771    0.0000 C   0  0  0  0  0  0  0  0  0  0  0  0
   -6.3696  -14.6918    0.0000 C   0  0  0  0  0  0  0  0  0  0  0  0
   -4.9023  -14.3799    0.0000 C   0  0  0  0  0  0  0  0  0  0  0  0
   -3.5118  -10.1001    0.0000 C   0  0  0  0  0  0  0  0  0  0  0  0
   -3.0482   -8.6736    0.0000 O   0  0  0  0  0  0  0  0  0  0  0  0
   -4.9790  -10.4120    0.0000 N   0  0  0  0  0  0  0  0  0  0  0  0
   -5.9827   -9.2973    0.0000 C   0  0  0  0  0  0  0  0  0  0  0  0
   -5.5192   -7.8707    0.0000 C   0  0  0  0  0  0  0  0  0  0  0  0
   -6.5229   -6.7560    0.0000 C   0  0  0  0  0  0  0  0  0  0  0  0
   -7.9901   -7.0679    0.0000 C   0  0  0  0  0  0  0  0  0  0  0  0
   -8.9938   -5.9531    0.0000 C   0  0  0  0  0  0  0  0  0  0  0  0
   -8.5302   -4.5266    0.0000 C   0  0  0  0  0  0  0  0  0  0  0  0
   -7.0630   -4.2147    0.0000 C   0  0  0  0  0  0  0  0  0  0  0  0
   -6.0593   -5.3294    0.0000 C   0  0  0  0  0  0  0  0  0  0  0  0
   -7.4499   -9.6092    0.0000 C   0  0  0  0  0  0  0  0  0  0  0  0
   -7.5055  -10.4044    0.0000 O   0  0  0  0  0  0  0  0  0  0  0  0
   -8.4536   -8.4945    0.0000 N   0  0  0  0  0  0  0  0  0  0  0  0
   -9.9208   -8.8063    0.0000 C   0  0  0  0  0  0  0  0  0  0  0  0
  -10.3844  -10.2329    0.0000 C   0  0  0  0  0  0  0  0  0  0  0  0
   -9.3807  -11.3476    0.0000 C   0  0  0  0  0  0  0  0  0  0  0  0
   -7.9134  -11.0358    0.0000 C   0  0  0  0  0  0  0  0  0  0  0  0
   -6.9097  -12.1505    0.0000 C   0  0  0  0  0  0  0  0  0  0  0  0
   -7.3733  -13.5771    0.0000 C   0  0  0  0  0  0  0  0  0  0  0  0
   -8.8405  -13.8889    0.0000 C   0  0  0  0  0  0  0  0  0  0  0  0
   -9.8442  -12.7742    0.0000 C   0  0  0  0  0  0  0  0  0  0  0  0
  -10.9245   -7.6916    0.0000 C   0  0  0  0  0  0  0  0  0  0  0  0
  -10.4610   -6.2650    0.0000 O   0  0  0  0  0  0  0  0  0  0  0  0
  -12.3917   -8.0035    0.0000 N   0  0  0  0  0  0  0  0  0  0  0  0
  -13.3954   -6.8888    0.0000 C   0  0  0  0  0  0  0  0  0  0  0  0
  -12.9319   -5.4622    0.0000 C   0  0  0  0  0  0  0  0  0  0  0  0
  -11.4647   -5.1503    0.0000 O   0  0  0  0  0  0  0  0  0  0  0  0
  -14.8627   -7.2006    0.0000 C   0  0  0  0  0  0  0  0  0  0  0  0
  -15.8664   -6.0859    0.0000 C   0  0  0  0  0  0  0  0  0  0  0  0
  -15.4028   -4.6593    0.0000 C   0  0  0  0  0  0  0  0  0  0  0  0
  -16.4065   -3.5446    0.0000 C   0  0  0  0  0  0  0  0  0  0  0  0
  -17.8737   -3.8565    0.0000 C   0  0  0  0  0  0  0  0  0  0  0  0
  -18.3373   -5.2831    0.0000 C   0  0  0  0  0  0  0  0  0  0  0  0
  -17.3336   -6.3978    0.0000 C   0  0  0  0  0  0  0  0  0  0  0  0
  1  2  1  0
  2  3  1  0
  2  4  1  0
  2  5  1  0
  5  6  1  0
  6  7  2  0
  6  8  1  0
  8  9  1  0
  9 10  1  0
 10 11  1  0
 11 12  1  0
 12 13  1  0
 13 14  2  0
 13 15  1  0
 15 16  1  0
 16 17  1  0
 17 18  1  0
 18 19  2  0
 19 20  1  0
 20 21  2  0
 21 22  1  0
 22 23  2  0
 16 24  1  0
 24 25  1  0
 24 26  1  0
 26 27  1  0
 27 28  1  0
 28 29  1  0
 29 30  1  0
 30 31  1  0
 31 32  1  0
 32 33  2  0
 32 34  1  0
 34 35  1  0
 35 36  1  0
 36 37  1  0
 37 38  2  0
 38 39  1  0
 39 40  2  0
 40 41  1  0
 41 42  2  0
 35 43  1  0
 43 44  2  0
 43 45  1  0
 45 46  1  0
 46 47  1  0
 47 48  1  0
 48 49  2  0
 49 50  1  0
 50 51  2  0
 51 52  1  0
 52 53  2  0
 46 54  1  0
 54 55  2  0
 54 56  1  0
 56 57  1  0
 57 58  1  0
 58 59  1  0
 59 60  2  0
 60 61  1  0
 61 62  2  0
 62 63  1  0
 63 64  2  0
 57 65  1  0
 65 66  2  0
 65 67  1  0
 67 68  1  0
 68 69  1  0
 69 70  2  0
 68 71  1  0
 71 72  1  0
 72 73  2  0
 73 74  1  0
 74 75  2  0
 75 76  1  0
 76 77  2  0
 12  8  1  0
 23 18  1  0
 31 27  1  0
 42 37  1  0
 53 48  1  0
 64 59  1  0
 77 72  1  0
M  END
>  <Title>  (152) 
idAAFVgen4

$$$$

     RDKit          2D

 65 70  0  0  0  0  0  0  0  0999 V2000
    1.0860   12.3558    0.0000 C   0  0  0  0  0  0  0  0  0  0  0  0
    0.3360   11.0568    0.0000 C   0  0  0  0  0  0  0  0  0  0  0  0
    1.0860    9.7578    0.0000 C   0  0  0  0  0  0  0  0  0  0  0  0
   -1.1640   11.0568    0.0000 C   0  0  0  0  0  0  0  0  0  0  0  0
   -1.9140    9.7578    0.0000 N   0  0  0  0  0  0  0  0  0  0  0  0
   -3.4140    9.7578    0.0000 C   0  0  0  0  0  0  0  0  0  0  0  0
   -4.1640    8.4587    0.0000 C   0  0  0  0  0  0  0  0  0  0  0  0
   -3.4140    7.1597    0.0000 O   0  0  0  0  0  0  0  0  0  0  0  0
   -5.6640    8.4587    0.0000 C   0  0  0  0  0  0  0  0  0  0  0  0
   -6.4140    9.7578    0.0000 C   0  0  0  0  0  0  0  0  0  0  0  0
   -5.6640   11.0568    0.0000 C   0  0  0  0  0  0  0  0  0  0  0  0
   -4.1640   11.0568    0.0000 C   0  0  0  0  0  0  0  0  0  0  0  0
   -3.4140   12.3558    0.0000 C   0  0  0  0  0  0  0  0  0  0  0  0
   -4.1640   13.6549    0.0000 C   0  0  0  0  0  0  0  0  0  0  0  0
   -5.6640   13.6549    0.0000 C   0  0  0  0  0  0  0  0  0  0  0  0
   -6.4140   12.3558    0.0000 C   0  0  0  0  0  0  0  0  0  0  0  0
   -6.4140    7.1597    0.0000 N   0  0  0  0  0  0  0  0  0  0  0  0
   -5.6640    5.8606    0.0000 C   0  0  0  0  0  0  0  0  0  0  0  0
   -4.1640    5.8606    0.0000 O   0  0  0  0  0  0  0  0  0  0  0  0
   -6.4140    4.5616    0.0000 C   0  0  0  0  0  0  0  0  0  0  0  0
   -7.9140    4.5616    0.0000 C   0  0  0  0  0  0  0  0  0  0  0  0
   -8.6640    5.8606    0.0000 C   0  0  0  0  0  0  0  0  0  0  0  0
   -7.9140    7.1597    0.0000 C   0  0  0  0  0  0  0  0  0  0  0  0
   -8.6640    8.4587    0.0000 C   0  0  0  0  0  0  0  0  0  0  0  0
  -10.1640    8.4587    0.0000 C   0  0  0  0  0  0  0  0  0  0  0  0
  -10.9140    7.1597    0.0000 C   0  0  0  0  0  0  0  0  0  0  0  0
  -10.1640    5.8606    0.0000 C   0  0  0  0  0  0  0  0  0  0  0  0
   -5.6640    3.2626    0.0000 N   0  0  0  0  0  0  0  0  0  0  0  0
   -4.1640    3.2626    0.0000 C   0  0  0  0  0  0  0  0  0  0  0  0
   -3.4140    4.5616    0.0000 O   0  0  0  0  0  0  0  0  0  0  0  0
   -3.4140    1.9635    0.0000 O   0  0  0  0  0  0  0  0  0  0  0  0
   -1.9140    1.9635    0.0000 C   0  0  0  0  0  0  0  0  0  0  0  0
   -1.0323    3.1771    0.0000 C   0  0  0  0  0  0  0  0  0  0  0  0
    0.3943    2.7135    0.0000 O   0  0  0  0  0  0  0  0  0  0  0  0
    0.3943    1.2135    0.0000 C   0  0  0  0  0  0  0  0  0  0  0  0
    1.2760    0.0000    0.0000 O   0  0  0  0  0  0  0  0  0  0  0  0
    0.3943   -1.2135    0.0000 C   0  0  0  0  0  0  0  0  0  0  0  0
   -1.0323   -0.7500    0.0000 C   0  0  0  0  0  0  0  0  0  0  0  0
   -1.0323    0.7500    0.0000 C   0  0  0  0  0  0  0  0  0  0  0  0
   -1.1640    8.4587    0.0000 S   0  0  0  0  0  0  0  0  0  0  0  0
   -2.4630    7.7087    0.0000 O   0  0  0  0  0  0  0  0  0  0  0  0
    0.1351    9.2087    0.0000 O   0  0  0  0  0  0  0  0  0  0  0  0
   -0.4140    7.1597    0.0000 C   0  0  0  0  0  0  0  0  0  0  0  0
   -1.1640    5.8606    0.0000 C   0  0  0  0  0  0  0  0  0  0  0  0
   -0.4140    4.5616    0.0000 C   0  0  0  0  0  0  0  0  0  0  0  0
    1.0860    4.5616    0.0000 C   0  0  0  0  0  0  0  0  0  0  0  0
    1.8360    3.2626    0.0000 N   0  0  0  0  0  0  0  0  0  0  0  0
    3.3360    3.2626    0.0000 C   0  0  0  0  0  0  0  0  0  0  0  0
    4.0860    4.5616    0.0000 O   0  0  0  0  0  0  0  0  0  0  0  0
    4.0860    1.9635    0.0000 C   0  0  0  0  0  0  0  0  0  0  0  0
    5.5860    1.9635    0.0000 C   0  0  0  0  0  0  0  0  0  0  0  0
    6.3360    3.2626    0.0000 C   0  0  0  0  0  0  0  0  0  0  0  0
    5.5860    4.5616    0.0000 O   0  0  0  0  0  0  0  0  0  0  0  0
    7.8360    3.2626    0.0000 O   0  0  0  0  0  0  0  0  0  0  0  0
    3.3360    0.6645    0.0000 N   0  0  0  0  0  0  0  0  0  0  0  0
    4.0860   -0.6346    0.0000 C   0  0  0  0  0  0  0  0  0  0  0  0
    5.5860   -0.6346    0.0000 O   0  0  0  0  0  0  0  0  0  0  0  0
    3.3360   -1.9336    0.0000 C   0  0  0  0  0  0  0  0  0  0  0  0
    1.8360   -1.9336    0.0000 C   0  0  0  0  0  0  0  0  0  0  0  0
    1.0860   -3.2326    0.0000 C   0  0  0  0  0  0  0  0  0  0  0  0
    1.8360   -4.5317    0.0000 C   0  0  0  0  0  0  0  0  0  0  0  0
    3.3360   -4.5317    0.0000 C   0  0  0  0  0  0  0  0  0  0  0  0
    4.0860   -3.2326    0.0000 C   0  0  0  0  0  0  0  0  0  0  0  0
    1.8360    5.8606    0.0000 C   0  0  0  0  0  0  0  0  0  0  0  0
    1.0860    7.1597    0.0000 C   0  0  0  0  0  0  0  0  0  0  0  0
  1  2  1  0
  2  3  1  0
  2  4  1  0
  4  5  1  0
  5  6  1  0
  6  7  1  0
  7  8  1  0
  7  9  1  0
  9 10  1  0
 10 11  1  0
 11 12  2  0
 12 13  1  0
 13 14  2  0
 14 15  1  0
 15 16  2  0
  9 17  1  0
 17 18  1  0
 18 19  2  0
 18 20  1  0
 20 21  1  0
 21 22  1  0
 22 23  2  0
 23 24  1  0
 24 25  2  0
 25 26  1  0
 26 27  2  0
 20 28  1  0
 28 29  1  0
 29 30  2  0
 29 31  1  0
 31 32  1  0
 32 33  1  0
 33 34  1  0
 34 35  1  0
 35 36  1  0
 36 37  1  0
 37 38  1  0
 38 39  1  0
  5 40  1  0
 40 41  2  0
 40 42  2  0
 40 43  1  0
 43 44  2  0
 44 45  1  0
 45 46  2  0
 46 47  1  0
 47 48  1  0
 48 49  2  0
 48 50  1  0
 50 51  1  0
 51 52  1  0
 52 53  2  0
 52 54  1  0
 50 55  1  0
 55 56  1  0
 56 57  2  0
 56 58  1  0
 58 59  2  0
 59 60  1  0
 60 61  2  0
 61 62  1  0
 62 63  2  0
 46 64  1  0
 64 65  2  0
 16 11  1  0
 27 22  1  0
 39 32  1  0
 65 43  1  0
 39 35  1  0
 63 58  1  0
M  END
>  <Title>  (153) 
idAAFWgen4

$$$$

     RDKit          2D

 58 62  0  0  0  0  0  0  0  0999 V2000
   -5.2500   -6.4952    0.0000 C   0  0  0  0  0  0  0  0  0  0  0  0
   -3.7500   -6.4952    0.0000 C   0  0  0  0  0  0  0  0  0  0  0  0
   -3.0000   -5.1962    0.0000 O   0  0  0  0  0  0  0  0  0  0  0  0
   -1.5000   -5.1962    0.0000 C   0  0  0  0  0  0  0  0  0  0  0  0
   -0.7500   -6.4952    0.0000 O   0  0  0  0  0  0  0  0  0  0  0  0
   -0.7500   -3.8971    0.0000 N   0  0  0  0  0  0  0  0  0  0  0  0
    0.7500   -3.8971    0.0000 C   0  0  0  0  0  0  0  0  0  0  0  0
    1.5000   -2.5981    0.0000 C   0  0  0  0  0  0  0  0  0  0  0  0
    0.7500   -1.2990    0.0000 C   0  0  0  0  0  0  0  0  0  0  0  0
    1.5000    0.0000    0.0000 C   0  0  0  0  0  0  0  0  0  0  0  0
    0.7500    1.2990    0.0000 C   0  0  0  0  0  0  0  0  0  0  0  0
   -0.7500    1.2990    0.0000 C   0  0  0  0  0  0  0  0  0  0  0  0
   -1.5000    0.0000    0.0000 C   0  0  0  0  0  0  0  0  0  0  0  0
   -0.7500   -1.2990    0.0000 C   0  0  0  0  0  0  0  0  0  0  0  0
    1.5000   -5.1962    0.0000 C   0  0  0  0  0  0  0  0  0  0  0  0
    3.0000   -5.1962    0.0000 O   0  0  0  0  0  0  0  0  0  0  0  0
    0.7500   -6.4952    0.0000 C   0  0  0  0  0  0  0  0  0  0  0  0
    1.5000   -7.7942    0.0000 C   0  0  0  0  0  0  0  0  0  0  0  0
    2.9918   -7.9510    0.0000 C   0  0  0  0  0  0  0  0  0  0  0  0
    3.3037   -9.4182    0.0000 C   0  0  0  0  0  0  0  0  0  0  0  0
    2.0046  -10.1682    0.0000 C   0  0  0  0  0  0  0  0  0  0  0  0
    0.8899   -9.1645    0.0000 C   0  0  0  0  0  0  0  0  0  0  0  0
   -0.5773   -9.4764    0.0000 C   0  0  0  0  0  0  0  0  0  0  0  0
   -1.5810   -8.3617    0.0000 O   0  0  0  0  0  0  0  0  0  0  0  0
   -1.0409  -10.9030    0.0000 N   0  0  0  0  0  0  0  0  0  0  0  0
   -2.5081  -11.2149    0.0000 C   0  0  0  0  0  0  0  0  0  0  0  0
   -2.9716  -12.6415    0.0000 C   0  0  0  0  0  0  0  0  0  0  0  0
   -4.4388  -12.9533    0.0000 C   0  0  0  0  0  0  0  0  0  0  0  0
   -5.4425  -11.8386    0.0000 C   0  0  0  0  0  0  0  0  0  0  0  0
   -6.9097  -12.1505    0.0000 C   0  0  0  0  0  0  0  0  0  0  0  0
   -7.3733  -13.5771    0.0000 C   0  0  0  0  0  0  0  0  0  0  0  0
   -6.3696  -14.6918    0.0000 C   0  0  0  0  0  0  0  0  0  0  0  0
   -4.9023  -14.3799    0.0000 C   0  0  0  0  0  0  0  0  0  0  0  0
   -3.5118  -10.1001    0.0000 C   0  0  0  0  0  0  0  0  0  0  0  0
   -3.0482   -8.6736    0.0000 O   0  0  0  0  0  0  0  0  0  0  0  0
   -4.9790  -10.4120    0.0000 N   0  0  0  0  0  0  0  0  0  0  0  0
   -5.9827   -9.2973    0.0000 C   0  0  0  0  0  0  0  0  0  0  0  0
   -7.4499   -9.6092    0.0000 C   0  0  0  0  0  0  0  0  0  0  0  0
   -8.4536   -8.4945    0.0000 C   0  0  0  0  0  0  0  0  0  0  0  0
   -7.9901   -7.0679    0.0000 C   0  0  0  0  0  0  0  0  0  0  0  0
   -8.9938   -5.9531    0.0000 C   0  0  0  0  0  0  0  0  0  0  0  0
  -10.4610   -6.2650    0.0000 C   0  0  0  0  0  0  0  0  0  0  0  0
  -10.9245   -7.6916    0.0000 C   0  0  0  0  0  0  0  0  0  0  0  0
   -9.9208   -8.8063    0.0000 C   0  0  0  0  0  0  0  0  0  0  0  0
   -5.5192   -7.8707    0.0000 C   0  0  0  0  0  0  0  0  0  0  0  0
   -4.0519   -7.5588    0.0000 O   0  0  0  0  0  0  0  0  0  0  0  0
   -6.5229   -6.7560    0.0000 N   0  0  0  0  0  0  0  0  0  0  0  0
   -6.0593   -5.3294    0.0000 C   0  0  0  0  0  0  0  0  0  0  0  0
   -4.5921   -5.0175    0.0000 C   0  0  0  0  0  0  0  0  0  0  0  0
   -4.1286   -3.5910    0.0000 C   0  0  0  0  0  0  0  0  0  0  0  0
   -5.1323   -2.4762    0.0000 C   0  0  0  0  0  0  0  0  0  0  0  0
   -4.6688   -1.0497    0.0000 C   0  0  0  0  0  0  0  0  0  0  0  0
   -3.2015   -0.7378    0.0000 C   0  0  0  0  0  0  0  0  0  0  0  0
   -2.1978   -1.8525    0.0000 C   0  0  0  0  0  0  0  0  0  0  0  0
   -2.6614   -3.2791    0.0000 C   0  0  0  0  0  0  0  0  0  0  0  0
   -7.0630   -4.2147    0.0000 C   0  0  0  0  0  0  0  0  0  0  0  0
   -6.5995   -2.7881    0.0000 O   0  0  0  0  0  0  0  0  0  0  0  0
   -8.5302   -4.5266    0.0000 O   0  0  0  0  0  0  0  0  0  0  0  0
  1  2  1  0
  2  3  1  0
  3  4  1  0
  4  5  2  0
  4  6  1  0
  6  7  1  0
  7  8  1  0
  8  9  1  0
  9 10  2  0
 10 11  1  0
 11 12  2  0
 12 13  1  0
 13 14  2  0
  7 15  1  0
 15 16  1  0
 15 17  1  0
 17 18  1  0
 18 19  1  0
 19 20  1  0
 20 21  1  0
 21 22  1  0
 22 23  1  0
 23 24  2  0
 23 25  1  0
 25 26  1  0
 26 27  1  0
 27 28  1  0
 28 29  2  0
 29 30  1  0
 30 31  2  0
 31 32  1  0
 32 33  2  0
 26 34  1  0
 34 35  2  0
 34 36  1  0
 36 37  1  0
 37 38  1  0
 38 39  1  0
 39 40  2  0
 40 41  1  0
 41 42  2  0
 42 43  1  0
 43 44  2  0
 37 45  1  0
 45 46  2  0
 45 47  1  0
 47 48  1  0
 48 49  1  0
 49 50  1  0
 50 51  2  0
 51 52  1  0
 52 53  2  0
 53 54  1  0
 54 55  2  0
 48 56  1  0
 56 57  2  0
 56 58  1  0
 14  9  1  0
 22 18  1  0
 33 28  1  0
 44 39  1  0
 55 50  1  0
M  END
>  <Title>  (154) 
idAAFXgen4

$$$$

     RDKit          2D

 52 55  0  0  0  0  0  0  0  0999 V2000
    5.8573   -3.8971    0.0000 C   0  0  0  0  0  0  0  0  0  0  0  0
    5.1073   -2.5981    0.0000 C   0  0  0  0  0  0  0  0  0  0  0  0
    5.8573   -1.2990    0.0000 C   0  0  0  0  0  0  0  0  0  0  0  0
    5.1073   -0.0000    0.0000 C   0  0  0  0  0  0  0  0  0  0  0  0
    3.6073    0.0000    0.0000 C   0  0  0  0  0  0  0  0  0  0  0  0
    3.2954    1.4672    0.0000 C   0  0  0  0  0  0  0  0  0  0  0  0
    4.6658    2.0773    0.0000 O   0  0  0  0  0  0  0  0  0  0  0  0
    2.4138    2.6807    0.0000 N   0  0  0  0  0  0  0  0  0  0  0  0
    1.1147    3.4307    0.0000 C   0  0  0  0  0  0  0  0  0  0  0  0
    1.5782    4.8573    0.0000 C   0  0  0  0  0  0  0  0  0  0  0  0
    3.0455    5.1692    0.0000 C   0  0  0  0  0  0  0  0  0  0  0  0
    4.0492    4.0545    0.0000 C   0  0  0  0  0  0  0  0  0  0  0  0
    5.5164    4.3663    0.0000 C   0  0  0  0  0  0  0  0  0  0  0  0
    5.9799    5.7929    0.0000 C   0  0  0  0  0  0  0  0  0  0  0  0
    4.9762    6.9077    0.0000 C   0  0  0  0  0  0  0  0  0  0  0  0
    3.5090    6.5958    0.0000 C   0  0  0  0  0  0  0  0  0  0  0  0
   -0.3771    3.5875    0.0000 C   0  0  0  0  0  0  0  0  0  0  0  0
   -0.5339    5.0793    0.0000 O   0  0  0  0  0  0  0  0  0  0  0  0
   -1.8037    3.1240    0.0000 N   0  0  0  0  0  0  0  0  0  0  0  0
   -2.9184    2.1203    0.0000 C   0  0  0  0  0  0  0  0  0  0  0  0
   -4.1319    3.0020    0.0000 C   0  0  0  0  0  0  0  0  0  0  0  0
   -3.9751    4.4938    0.0000 C   0  0  0  0  0  0  0  0  0  0  0  0
   -2.6048    5.1039    0.0000 C   0  0  0  0  0  0  0  0  0  0  0  0
   -2.4480    6.5957    0.0000 C   0  0  0  0  0  0  0  0  0  0  0  0
   -3.6615    7.4773    0.0000 C   0  0  0  0  0  0  0  0  0  0  0  0
   -5.0318    6.8672    0.0000 C   0  0  0  0  0  0  0  0  0  0  0  0
   -5.1886    5.3755    0.0000 C   0  0  0  0  0  0  0  0  0  0  0  0
   -3.5285    0.7500    0.0000 C   0  0  0  0  0  0  0  0  0  0  0  0
   -4.9957    1.0619    0.0000 O   0  0  0  0  0  0  0  0  0  0  0  0
   -3.5285   -0.7500    0.0000 N   0  0  0  0  0  0  0  0  0  0  0  0
   -2.9184   -2.1203    0.0000 C   0  0  0  0  0  0  0  0  0  0  0  0
   -4.1319   -3.0020    0.0000 C   0  0  0  0  0  0  0  0  0  0  0  0
   -5.5022   -2.3919    0.0000 C   0  0  0  0  0  0  0  0  0  0  0  0
   -5.6590   -0.9001    0.0000 C   0  0  0  0  0  0  0  0  0  0  0  0
   -7.0293   -0.2900    0.0000 C   0  0  0  0  0  0  0  0  0  0  0  0
   -8.2428   -1.1717    0.0000 C   0  0  0  0  0  0  0  0  0  0  0  0
   -8.0861   -2.6635    0.0000 C   0  0  0  0  0  0  0  0  0  0  0  0
   -6.7157   -3.2736    0.0000 C   0  0  0  0  0  0  0  0  0  0  0  0
   -1.8037   -3.1240    0.0000 C   0  0  0  0  0  0  0  0  0  0  0  0
   -2.5537   -4.4231    0.0000 O   0  0  0  0  0  0  0  0  0  0  0  0
   -0.3771   -3.5875    0.0000 N   0  0  0  0  0  0  0  0  0  0  0  0
    1.1147   -3.4307    0.0000 C   0  0  0  0  0  0  0  0  0  0  0  0
    1.5782   -4.8573    0.0000 C   0  0  0  0  0  0  0  0  0  0  0  0
    0.5745   -5.9720    0.0000 C   0  0  0  0  0  0  0  0  0  0  0  0
    1.0381   -7.3986    0.0000 N   0  0  0  0  0  0  0  0  0  0  0  0
   -0.8927   -5.6602    0.0000 O   0  0  0  0  0  0  0  0  0  0  0  0
    2.4138   -2.6807    0.0000 C   0  0  0  0  0  0  0  0  0  0  0  0
    3.4175   -3.7955    0.0000 O   0  0  0  0  0  0  0  0  0  0  0  0
    3.2954   -1.4672    0.0000 N   0  0  0  0  0  0  0  0  0  0  0  0
    4.3592   -2.2984    0.0000 C   0  0  0  0  0  0  0  0  0  0  0  0
    7.3573   -1.2990    0.0000 N   0  0  0  0  0  0  0  0  0  0  0  0
    8.1073   -2.5981    0.0000 O   0  0  0  0  0  0  0  0  0  0  0  0
  1  2  1  0
  2  3  1  0
  3  4  1  0
  4  5  1  0
  5  6  1  0
  6  7  2  0
  6  8  1  0
  8  9  1  0
  9 10  1  0
 10 11  1  0
 11 12  2  0
 12 13  1  0
 13 14  2  0
 14 15  1  0
 15 16  2  0
  9 17  1  0
 17 18  2  0
 17 19  1  0
 19 20  1  0
 20 21  1  0
 21 22  1  0
 22 23  2  0
 23 24  1  0
 24 25  2  0
 25 26  1  0
 26 27  2  0
 20 28  1  0
 28 29  2  0
 28 30  1  0
 30 31  1  0
 31 32  1  0
 32 33  1  0
 33 34  2  0
 34 35  1  0
 35 36  2  0
 36 37  1  0
 37 38  2  0
 31 39  1  0
 39 40  2  0
 39 41  1  0
 41 42  1  0
 42 43  1  0
 43 44  1  0
 44 45  1  0
 44 46  2  0
 42 47  1  0
 47 48  2  0
 47 49  1  0
 49 50  1  0
  3 51  2  3
 51 52  1  0
 49  5  1  0
 16 11  1  0
 27 22  1  0
 38 33  1  0
M  END
>  <Title>  (155) 
idAAFYgen4

$$$$

     RDKit          2D

 57 62  0  0  0  0  0  0  0  0999 V2000
    3.3360   11.0568    0.0000 C   0  0  0  0  0  0  0  0  0  0  0  0
    2.5860    9.7578    0.0000 C   0  0  0  0  0  0  0  0  0  0  0  0
    3.3360    8.4587    0.0000 C   0  0  0  0  0  0  0  0  0  0  0  0
    1.0860    9.7578    0.0000 C   0  0  0  0  0  0  0  0  0  0  0  0
    0.3360    8.4587    0.0000 N   0  0  0  0  0  0  0  0  0  0  0  0
   -1.1640    8.4587    0.0000 C   0  0  0  0  0  0  0  0  0  0  0  0
   -1.9140    9.7578    0.0000 C   0  0  0  0  0  0  0  0  0  0  0  0
   -1.1640   11.0568    0.0000 C   0  0  0  0  0  0  0  0  0  0  0  0
   -1.9140   12.3558    0.0000 C   0  0  0  0  0  0  0  0  0  0  0  0
   -3.4140   12.3558    0.0000 C   0  0  0  0  0  0  0  0  0  0  0  0
   -4.1640   13.6549    0.0000 C   0  0  0  0  0  0  0  0  0  0  0  0
   -3.4140   14.9539    0.0000 C   0  0  0  0  0  0  0  0  0  0  0  0
   -1.9140   14.9539    0.0000 C   0  0  0  0  0  0  0  0  0  0  0  0
   -1.1640   13.6549    0.0000 C   0  0  0  0  0  0  0  0  0  0  0  0
   -3.4140    9.7578    0.0000 N   0  0  0  0  0  0  0  0  0  0  0  0
   -4.1640    8.4587    0.0000 C   0  0  0  0  0  0  0  0  0  0  0  0
   -3.4140    7.1597    0.0000 O   0  0  0  0  0  0  0  0  0  0  0  0
   -5.6640    8.4587    0.0000 C   0  0  0  0  0  0  0  0  0  0  0  0
   -6.4140    9.7578    0.0000 C   0  0  0  0  0  0  0  0  0  0  0  0
   -7.9140    9.7578    0.0000 C   0  0  0  0  0  0  0  0  0  0  0  0
   -8.6640    8.4587    0.0000 C   0  0  0  0  0  0  0  0  0  0  0  0
  -10.1640    8.4587    0.0000 C   0  0  0  0  0  0  0  0  0  0  0  0
  -10.9140    9.7578    0.0000 C   0  0  0  0  0  0  0  0  0  0  0  0
  -10.1640   11.0568    0.0000 C   0  0  0  0  0  0  0  0  0  0  0  0
   -8.6640   11.0568    0.0000 C   0  0  0  0  0  0  0  0  0  0  0  0
   -6.4140    7.1597    0.0000 N   0  0  0  0  0  0  0  0  0  0  0  0
   -5.6640    5.8606    0.0000 C   0  0  0  0  0  0  0  0  0  0  0  0
   -4.1640    5.8606    0.0000 O   0  0  0  0  0  0  0  0  0  0  0  0
   -6.4140    4.5616    0.0000 C   0  0  0  0  0  0  0  0  0  0  0  0
   -7.9140    4.5616    0.0000 C   0  0  0  0  0  0  0  0  0  0  0  0
   -8.6640    3.2626    0.0000 C   0  0  0  0  0  0  0  0  0  0  0  0
   -7.9140    1.9635    0.0000 C   0  0  0  0  0  0  0  0  0  0  0  0
   -8.6640    0.6645    0.0000 C   0  0  0  0  0  0  0  0  0  0  0  0
  -10.1640    0.6645    0.0000 C   0  0  0  0  0  0  0  0  0  0  0  0
  -10.9140    1.9635    0.0000 C   0  0  0  0  0  0  0  0  0  0  0  0
  -10.1640    3.2626    0.0000 C   0  0  0  0  0  0  0  0  0  0  0  0
   -5.6640    3.2626    0.0000 N   0  0  0  0  0  0  0  0  0  0  0  0
   -4.1640    3.2626    0.0000 C   0  0  0  0  0  0  0  0  0  0  0  0
   -3.4140    4.5616    0.0000 O   0  0  0  0  0  0  0  0  0  0  0  0
   -3.4140    1.9635    0.0000 O   0  0  0  0  0  0  0  0  0  0  0  0
   -1.9140    1.9635    0.0000 C   0  0  0  0  0  0  0  0  0  0  0  0
   -1.0323    3.1771    0.0000 C   0  0  0  0  0  0  0  0  0  0  0  0
    0.3943    2.7135    0.0000 O   0  0  0  0  0  0  0  0  0  0  0  0
    0.3943    1.2135    0.0000 C   0  0  0  0  0  0  0  0  0  0  0  0
    1.2760    0.0000    0.0000 O   0  0  0  0  0  0  0  0  0  0  0  0
    0.3943   -1.2135    0.0000 C   0  0  0  0  0  0  0  0  0  0  0  0
   -1.0323   -0.7500    0.0000 C   0  0  0  0  0  0  0  0  0  0  0  0
   -1.0323    0.7500    0.0000 C   0  0  0  0  0  0  0  0  0  0  0  0
    1.0860    7.1597    0.0000 S   0  0  0  0  0  0  0  0  0  0  0  0
   -0.2130    6.4097    0.0000 O   0  0  0  0  0  0  0  0  0  0  0  0
    2.3851    7.9097    0.0000 O   0  0  0  0  0  0  0  0  0  0  0  0
    1.8360    5.8606    0.0000 C   0  0  0  0  0  0  0  0  0  0  0  0
    3.3360    5.8606    0.0000 C   0  0  0  0  0  0  0  0  0  0  0  0
    4.0860    4.5616    0.0000 C   0  0  0  0  0  0  0  0  0  0  0  0
    3.3360    3.2626    0.0000 C   0  0  0  0  0  0  0  0  0  0  0  0
    1.8360    3.2626    0.0000 C   0  0  0  0  0  0  0  0  0  0  0  0
    1.0860    4.5616    0.0000 C   0  0  0  0  0  0  0  0  0  0  0  0
  1  2  1  0
  2  3  1  0
  2  4  1  0
  4  5  1  0
  5  6  1  0
  6  7  1  0
  7  8  1  0
  8  9  1  0
  9 10  2  0
 10 11  1  0
 11 12  2  0
 12 13  1  0
 13 14  2  0
  7 15  1  0
 15 16  1  0
 16 17  2  0
 16 18  1  0
 18 19  1  0
 19 20  1  0
 20 21  2  0
 21 22  1  0
 22 23  2  0
 23 24  1  0
 24 25  2  0
 18 26  1  0
 26 27  1  0
 27 28  2  0
 27 29  1  0
 29 30  1  0
 30 31  1  0
 31 32  2  0
 32 33  1  0
 33 34  2  0
 34 35  1  0
 35 36  2  0
 29 37  1  0
 37 38  1  0
 38 39  2  0
 38 40  1  0
 40 41  1  0
 41 42  1  0
 42 43  1  0
 43 44  1  0
 44 45  1  0
 45 46  1  0
 46 47  1  0
 47 48  1  0
  5 49  1  0
 49 50  2  0
 49 51  2  0
 49 52  1  0
 52 53  2  0
 53 54  1  0
 54 55  2  0
 55 56  1  0
 56 57  2  0
 14  9  1  0
 25 20  1  0
 36 31  1  0
 48 41  1  0
 57 52  1  0
 48 44  1  0
M  END
>  <Title>  (156) 
idAAFZgen4

$$$$

     RDKit          2D

 68 73  0  0  0  0  0  0  0  0999 V2000
    6.7500   -6.4952    0.0000 C   0  0  0  0  0  0  0  0  0  0  0  0
    6.0000   -5.1962    0.0000 C   0  0  0  0  0  0  0  0  0  0  0  0
    6.7500   -3.8971    0.0000 C   0  0  0  0  0  0  0  0  0  0  0  0
    4.5000   -5.1962    0.0000 C   0  0  0  0  0  0  0  0  0  0  0  0
    3.7500   -3.8971    0.0000 C   0  0  0  0  0  0  0  0  0  0  0  0
    2.2500   -3.8971    0.0000 N   0  0  0  0  0  0  0  0  0  0  0  0
    1.5000   -2.5981    0.0000 S   0  0  0  0  0  0  0  0  0  0  0  0
    0.2010   -3.3481    0.0000 O   0  0  0  0  0  0  0  0  0  0  0  0
    2.7990   -1.8481    0.0000 O   0  0  0  0  0  0  0  0  0  0  0  0
    0.7500   -1.2990    0.0000 C   0  0  0  0  0  0  0  0  0  0  0  0
    1.5000    0.0000    0.0000 C   0  0  0  0  0  0  0  0  0  0  0  0
    0.7500    1.2990    0.0000 C   0  0  0  0  0  0  0  0  0  0  0  0
   -0.7500    1.2990    0.0000 C   0  0  0  0  0  0  0  0  0  0  0  0
   -1.5000    2.5981    0.0000 C   0  0  0  0  0  0  0  0  0  0  0  0
   -0.7500    3.8971    0.0000 C   0  0  0  0  0  0  0  0  0  0  0  0
   -1.5000    5.1962    0.0000 C   0  0  0  0  0  0  0  0  0  0  0  0
   -3.0000    5.1962    0.0000 C   0  0  0  0  0  0  0  0  0  0  0  0
   -3.7500    3.8971    0.0000 C   0  0  0  0  0  0  0  0  0  0  0  0
   -3.0000    2.5981    0.0000 N   0  0  0  0  0  0  0  0  0  0  0  0
   -1.5000    0.0000    0.0000 C   0  0  0  0  0  0  0  0  0  0  0  0
   -0.7500   -1.2990    0.0000 C   0  0  0  0  0  0  0  0  0  0  0  0
    4.5000   -2.5981    0.0000 C   0  0  0  0  0  0  0  0  0  0  0  0
    3.7500   -1.2990    0.0000 O   0  0  0  0  0  0  0  0  0  0  0  0
    6.0000   -2.5981    0.0000 N   0  0  0  0  0  0  0  0  0  0  0  0
    6.7500   -1.2990    0.0000 C   0  0  0  0  0  0  0  0  0  0  0  0
    8.2500   -1.2990    0.0000 C   0  0  0  0  0  0  0  0  0  0  0  0
    9.0000   -0.0000    0.0000 C   0  0  0  0  0  0  0  0  0  0  0  0
   10.5000   -0.0000    0.0000 C   0  0  0  0  0  0  0  0  0  0  0  0
   11.2500    1.2990    0.0000 C   0  0  0  0  0  0  0  0  0  0  0  0
   10.5000    2.5981    0.0000 C   0  0  0  0  0  0  0  0  0  0  0  0
    9.0000    2.5981    0.0000 C   0  0  0  0  0  0  0  0  0  0  0  0
    8.2500    1.2990    0.0000 C   0  0  0  0  0  0  0  0  0  0  0  0
    6.0000   -0.0000    0.0000 C   0  0  0  0  0  0  0  0  0  0  0  0
    4.5000   -0.0000    0.0000 O   0  0  0  0  0  0  0  0  0  0  0  0
    6.7500    1.2990    0.0000 N   0  0  0  0  0  0  0  0  0  0  0  0
    6.0000    2.5981    0.0000 C   0  0  0  0  0  0  0  0  0  0  0  0
    4.5000    2.5981    0.0000 C   0  0  0  0  0  0  0  0  0  0  0  0
    3.7500    3.8971    0.0000 C   0  0  0  0  0  0  0  0  0  0  0  0
    2.2500    3.8971    0.0000 C   0  0  0  0  0  0  0  0  0  0  0  0
    1.5000    5.1962    0.0000 C   0  0  0  0  0  0  0  0  0  0  0  0
    2.2500    6.4952    0.0000 C   0  0  0  0  0  0  0  0  0  0  0  0
    3.7500    6.4952    0.0000 C   0  0  0  0  0  0  0  0  0  0  0  0
    4.5000    5.1962    0.0000 C   0  0  0  0  0  0  0  0  0  0  0  0
    6.7500    3.8971    0.0000 C   0  0  0  0  0  0  0  0  0  0  0  0
    8.2500    3.8971    0.0000 O   0  0  0  0  0  0  0  0  0  0  0  0
    6.0000    5.1962    0.0000 N   0  0  0  0  0  0  0  0  0  0  0  0
    6.7500    6.4952    0.0000 C   0  0  0  0  0  0  0  0  0  0  0  0
    8.2500    6.4952    0.0000 C   0  0  0  0  0  0  0  0  0  0  0  0
    9.0000    7.7942    0.0000 C   0  0  0  0  0  0  0  0  0  0  0  0
   10.5000    7.7942    0.0000 C   0  0  0  0  0  0  0  0  0  0  0  0
   11.2500    9.0933    0.0000 C   0  0  0  0  0  0  0  0  0  0  0  0
   10.5000   10.3923    0.0000 C   0  0  0  0  0  0  0  0  0  0  0  0
    9.0000   10.3923    0.0000 C   0  0  0  0  0  0  0  0  0  0  0  0
    8.2500    9.0933    0.0000 C   0  0  0  0  0  0  0  0  0  0  0  0
    6.0000    7.7942    0.0000 C   0  0  0  0  0  0  0  0  0  0  0  0
    4.5000    7.7942    0.0000 O   0  0  0  0  0  0  0  0  0  0  0  0
    6.7500    9.0933    0.0000 N   0  0  0  0  0  0  0  0  0  0  0  0
    6.0000   10.3923    0.0000 C   0  0  0  0  0  0  0  0  0  0  0  0
    6.7500   11.6913    0.0000 C   0  0  0  0  0  0  0  0  0  0  0  0
    6.0000   12.9904    0.0000 C   0  0  0  0  0  0  0  0  0  0  0  0
    6.7500   14.2894    0.0000 C   0  0  0  0  0  0  0  0  0  0  0  0
    6.0000   15.5885    0.0000 C   0  0  0  0  0  0  0  0  0  0  0  0
    4.5000   15.5885    0.0000 C   0  0  0  0  0  0  0  0  0  0  0  0
    3.7500   14.2894    0.0000 C   0  0  0  0  0  0  0  0  0  0  0  0
    4.5000   12.9904    0.0000 C   0  0  0  0  0  0  0  0  0  0  0  0
    4.5000   10.3923    0.0000 C   0  0  0  0  0  0  0  0  0  0  0  0
    3.7500    9.0933    0.0000 O   0  0  0  0  0  0  0  0  0  0  0  0
    3.7500   11.6913    0.0000 O   0  0  0  0  0  0  0  0  0  0  0  0
  1  2  1  0
  2  3  1  0
  2  4  1  0
  4  5  1  0
  5  6  1  0
  6  7  1  0
  7  8  2  0
  7  9  2  0
  7 10  1  0
 10 11  2  0
 11 12  1  0
 12 13  2  0
 13 14  1  0
 14 15  2  0
 15 16  1  0
 16 17  2  0
 17 18  1  0
 18 19  2  0
 13 20  1  0
 20 21  2  0
  5 22  1  0
 22 23  2  0
 22 24  1  0
 24 25  1  0
 25 26  1  0
 26 27  1  0
 27 28  2  0
 28 29  1  0
 29 30  2  0
 30 31  1  0
 31 32  2  0
 25 33  1  0
 33 34  2  0
 33 35  1  0
 35 36  1  0
 36 37  1  0
 37 38  1  0
 38 39  2  0
 39 40  1  0
 40 41  2  0
 41 42  1  0
 42 43  2  0
 36 44  1  0
 44 45  2  0
 44 46  1  0
 46 47  1  0
 47 48  1  0
 48 49  1  0
 49 50  2  0
 50 51  1  0
 51 52  2  0
 52 53  1  0
 53 54  2  0
 47 55  1  0
 55 56  2  0
 55 57  1  0
 57 58  1  0
 58 59  1  0
 59 60  1  0
 60 61  2  0
 61 62  1  0
 62 63  2  0
 63 64  1  0
 64 65  2  0
 58 66  1  0
 66 67  2  0
 66 68  1  0
 21 10  1  0
 32 27  1  0
 43 38  1  0
 54 49  1  0
 65 60  1  0
 19 14  1  0
M  END
>  <Title>  (157) 
idAAGAgen4

$$$$

     RDKit          2D

 56 60  0  0  0  0  0  0  0  0999 V2000
   -3.9583   -0.0147    0.0000 C   0  0  0  0  0  0  0  0  0  0  0  0
   -4.4218   -1.4413    0.0000 O   0  0  0  0  0  0  0  0  0  0  0  0
   -3.4182   -2.5560    0.0000 C   0  0  0  0  0  0  0  0  0  0  0  0
   -1.9509   -2.2442    0.0000 O   0  0  0  0  0  0  0  0  0  0  0  0
   -3.8817   -3.9826    0.0000 C   0  0  0  0  0  0  0  0  0  0  0  0
   -5.3083   -4.4462    0.0000 C   0  0  0  0  0  0  0  0  0  0  0  0
   -5.3083   -5.9462    0.0000 C   0  0  0  0  0  0  0  0  0  0  0  0
   -3.8817   -6.4097    0.0000 C   0  0  0  0  0  0  0  0  0  0  0  0
   -3.0000   -5.1962    0.0000 C   0  0  0  0  0  0  0  0  0  0  0  0
   -1.5000   -5.1962    0.0000 C   0  0  0  0  0  0  0  0  0  0  0  0
   -0.7500   -6.4952    0.0000 O   0  0  0  0  0  0  0  0  0  0  0  0
   -0.7500   -3.8971    0.0000 N   0  0  0  0  0  0  0  0  0  0  0  0
    0.7500   -3.8971    0.0000 C   0  0  0  0  0  0  0  0  0  0  0  0
    1.5000   -2.5981    0.0000 C   0  0  0  0  0  0  0  0  0  0  0  0
    0.7500   -1.2990    0.0000 C   0  0  0  0  0  0  0  0  0  0  0  0
    1.5000    0.0000    0.0000 C   0  0  0  0  0  0  0  0  0  0  0  0
    0.7500    1.2990    0.0000 C   0  0  0  0  0  0  0  0  0  0  0  0
   -0.7500    1.2990    0.0000 C   0  0  0  0  0  0  0  0  0  0  0  0
   -1.5000    0.0000    0.0000 C   0  0  0  0  0  0  0  0  0  0  0  0
   -0.7500   -1.2990    0.0000 C   0  0  0  0  0  0  0  0  0  0  0  0
    1.5000   -5.1962    0.0000 C   0  0  0  0  0  0  0  0  0  0  0  0
    3.0000   -5.1962    0.0000 O   0  0  0  0  0  0  0  0  0  0  0  0
    0.7500   -6.4952    0.0000 N   0  0  0  0  0  0  0  0  0  0  0  0
    1.5000   -7.7942    0.0000 C   0  0  0  0  0  0  0  0  0  0  0  0
    0.7500   -9.0933    0.0000 C   0  0  0  0  0  0  0  0  0  0  0  0
    1.5000  -10.3923    0.0000 C   0  0  0  0  0  0  0  0  0  0  0  0
    0.7500  -11.6913    0.0000 C   0  0  0  0  0  0  0  0  0  0  0  0
    1.5000  -12.9904    0.0000 C   0  0  0  0  0  0  0  0  0  0  0  0
    3.0000  -12.9904    0.0000 C   0  0  0  0  0  0  0  0  0  0  0  0
    3.7500  -11.6913    0.0000 C   0  0  0  0  0  0  0  0  0  0  0  0
    3.0000  -10.3923    0.0000 C   0  0  0  0  0  0  0  0  0  0  0  0
    3.0000   -7.7942    0.0000 C   0  0  0  0  0  0  0  0  0  0  0  0
    3.7500   -6.4952    0.0000 O   0  0  0  0  0  0  0  0  0  0  0  0
    3.7500   -9.0933    0.0000 N   0  0  0  0  0  0  0  0  0  0  0  0
    5.2500   -9.0933    0.0000 C   0  0  0  0  0  0  0  0  0  0  0  0
    6.0000  -10.3923    0.0000 C   0  0  0  0  0  0  0  0  0  0  0  0
    7.5000  -10.3923    0.0000 C   0  0  0  0  0  0  0  0  0  0  0  0
    8.2500  -11.6913    0.0000 C   0  0  0  0  0  0  0  0  0  0  0  0
    9.7500  -11.6913    0.0000 C   0  0  0  0  0  0  0  0  0  0  0  0
   10.5000  -10.3923    0.0000 C   0  0  0  0  0  0  0  0  0  0  0  0
    9.7500   -9.0933    0.0000 C   0  0  0  0  0  0  0  0  0  0  0  0
    8.2500   -9.0933    0.0000 C   0  0  0  0  0  0  0  0  0  0  0  0
    6.0000   -7.7942    0.0000 C   0  0  0  0  0  0  0  0  0  0  0  0
    5.2500   -6.4952    0.0000 O   0  0  0  0  0  0  0  0  0  0  0  0
    7.5000   -7.7942    0.0000 N   0  0  0  0  0  0  0  0  0  0  0  0
    8.2500   -6.4952    0.0000 C   0  0  0  0  0  0  0  0  0  0  0  0
    9.7500   -6.4952    0.0000 C   0  0  0  0  0  0  0  0  0  0  0  0
   10.5000   -5.1962    0.0000 C   0  0  0  0  0  0  0  0  0  0  0  0
   12.0000   -5.1962    0.0000 C   0  0  0  0  0  0  0  0  0  0  0  0
   12.7500   -3.8971    0.0000 C   0  0  0  0  0  0  0  0  0  0  0  0
   12.0000   -2.5981    0.0000 C   0  0  0  0  0  0  0  0  0  0  0  0
   10.5000   -2.5981    0.0000 C   0  0  0  0  0  0  0  0  0  0  0  0
    9.7500   -3.8971    0.0000 C   0  0  0  0  0  0  0  0  0  0  0  0
    7.5000   -5.1962    0.0000 C   0  0  0  0  0  0  0  0  0  0  0  0
    6.0000   -5.1962    0.0000 O   0  0  0  0  0  0  0  0  0  0  0  0
    8.2500   -3.8971    0.0000 O   0  0  0  0  0  0  0  0  0  0  0  0
  1  2  1  0
  2  3  1  0
  3  4  2  0
  3  5  1  0
  5  6  1  0
  6  7  1  0
  7  8  1  0
  8  9  1  0
  9 10  1  0
 10 11  2  0
 10 12  1  0
 12 13  1  0
 13 14  1  0
 14 15  1  0
 15 16  2  0
 16 17  1  0
 17 18  2  0
 18 19  1  0
 19 20  2  0
 13 21  1  0
 21 22  2  0
 21 23  1  0
 23 24  1  0
 24 25  1  0
 25 26  1  0
 26 27  2  0
 27 28  1  0
 28 29  2  0
 29 30  1  0
 30 31  2  0
 24 32  1  0
 32 33  2  0
 32 34  1  0
 34 35  1  0
 35 36  1  0
 36 37  1  0
 37 38  2  0
 38 39  1  0
 39 40  2  0
 40 41  1  0
 41 42  2  0
 35 43  1  0
 43 44  2  0
 43 45  1  0
 45 46  1  0
 46 47  1  0
 47 48  1  0
 48 49  2  0
 49 50  1  0
 50 51  2  0
 51 52  1  0
 52 53  2  0
 46 54  1  0
 54 55  2  0
 54 56  1  0
  9  5  1  0
 20 15  1  0
 31 26  1  0
 42 37  1  0
 53 48  1  0
M  END
>  <Title>  (158) 
idAAGBgen4

$$$$

     RDKit          2D

 71 76  0  0  0  0  0  0  0  0999 V2000
    5.2500   -2.7990    0.0000 C   0  0  0  0  0  0  0  0  0  0  0  0
    5.2500   -1.2990    0.0000 C   0  0  0  0  0  0  0  0  0  0  0  0
    5.2500    0.2010    0.0000 C   0  0  0  0  0  0  0  0  0  0  0  0
    6.7500   -1.2990    0.0000 C   0  0  0  0  0  0  0  0  0  0  0  0
    3.7500   -1.2990    0.0000 N   0  0  0  0  0  0  0  0  0  0  0  0
    3.0000    0.0000    0.0000 C   0  0  0  0  0  0  0  0  0  0  0  0
    3.7500    1.2990    0.0000 O   0  0  0  0  0  0  0  0  0  0  0  0
    1.5000    0.0000    0.0000 C   0  0  0  0  0  0  0  0  0  0  0  0
    0.7500   -1.2990    0.0000 C   0  0  0  0  0  0  0  0  0  0  0  0
   -0.7500   -1.2990    0.0000 C   0  0  0  0  0  0  0  0  0  0  0  0
   -1.5000    0.0000    0.0000 C   0  0  0  0  0  0  0  0  0  0  0  0
   -0.7500    1.2990    0.0000 C   0  0  0  0  0  0  0  0  0  0  0  0
    0.7500    1.2990    0.0000 C   0  0  0  0  0  0  0  0  0  0  0  0
    1.5000    2.5981    0.0000 C   0  0  0  0  0  0  0  0  0  0  0  0
    0.7500    3.8971    0.0000 O   0  0  0  0  0  0  0  0  0  0  0  0
    3.0000    2.5981    0.0000 N   0  0  0  0  0  0  0  0  0  0  0  0
    3.7500    3.8971    0.0000 C   0  0  0  0  0  0  0  0  0  0  0  0
    5.2500    3.8971    0.0000 C   0  0  0  0  0  0  0  0  0  0  0  0
    6.0000    5.1962    0.0000 C   0  0  0  0  0  0  0  0  0  0  0  0
    7.5000    5.1962    0.0000 C   0  0  0  0  0  0  0  0  0  0  0  0
    8.2500    6.4952    0.0000 C   0  0  0  0  0  0  0  0  0  0  0  0
    7.5000    7.7942    0.0000 C   0  0  0  0  0  0  0  0  0  0  0  0
    6.0000    7.7942    0.0000 C   0  0  0  0  0  0  0  0  0  0  0  0
    5.2500    6.4952    0.0000 C   0  0  0  0  0  0  0  0  0  0  0  0
    3.0000    5.1962    0.0000 C   0  0  0  0  0  0  0  0  0  0  0  0
    1.5000    5.1962    0.0000 O   0  0  0  0  0  0  0  0  0  0  0  0
    3.7500    6.4952    0.0000 N   0  0  0  0  0  0  0  0  0  0  0  0
    3.0000    7.7942    0.0000 C   0  0  0  0  0  0  0  0  0  0  0  0
    3.7500    9.0933    0.0000 C   0  0  0  0  0  0  0  0  0  0  0  0
    3.0000   10.3923    0.0000 C   0  0  0  0  0  0  0  0  0  0  0  0
    3.7500   11.6913    0.0000 C   0  0  0  0  0  0  0  0  0  0  0  0
    3.0000   12.9904    0.0000 C   0  0  0  0  0  0  0  0  0  0  0  0
    1.5000   12.9904    0.0000 C   0  0  0  0  0  0  0  0  0  0  0  0
    0.7500   11.6913    0.0000 C   0  0  0  0  0  0  0  0  0  0  0  0
    1.5000   10.3923    0.0000 C   0  0  0  0  0  0  0  0  0  0  0  0
    1.5000    7.7942    0.0000 C   0  0  0  0  0  0  0  0  0  0  0  0
    0.7500    6.4952    0.0000 O   0  0  0  0  0  0  0  0  0  0  0  0
    0.7500    9.0933    0.0000 N   0  0  0  0  0  0  0  0  0  0  0  0
   -0.7500    9.0933    0.0000 C   0  0  0  0  0  0  0  0  0  0  0  0
   -1.5000    7.7942    0.0000 C   0  0  0  0  0  0  0  0  0  0  0  0
   -3.0000    7.7942    0.0000 C   0  0  0  0  0  0  0  0  0  0  0  0
   -3.7500    6.4952    0.0000 C   0  0  0  0  0  0  0  0  0  0  0  0
   -5.2500    6.4952    0.0000 C   0  0  0  0  0  0  0  0  0  0  0  0
   -6.0000    7.7942    0.0000 C   0  0  0  0  0  0  0  0  0  0  0  0
   -5.2500    9.0933    0.0000 C   0  0  0  0  0  0  0  0  0  0  0  0
   -3.7500    9.0933    0.0000 C   0  0  0  0  0  0  0  0  0  0  0  0
   -1.5000   10.3923    0.0000 C   0  0  0  0  0  0  0  0  0  0  0  0
   -0.7500   11.6913    0.0000 O   0  0  0  0  0  0  0  0  0  0  0  0
   -3.0000   10.3923    0.0000 N   0  0  0  0  0  0  0  0  0  0  0  0
   -3.7500   11.6913    0.0000 C   0  0  0  0  0  0  0  0  0  0  0  0
   -5.2500   11.6913    0.0000 C   0  0  0  0  0  0  0  0  0  0  0  0
   -6.0000   10.3923    0.0000 C   0  0  0  0  0  0  0  0  0  0  0  0
   -7.5000   10.3923    0.0000 C   0  0  0  0  0  0  0  0  0  0  0  0
   -8.2500    9.0933    0.0000 C   0  0  0  0  0  0  0  0  0  0  0  0
   -7.5000    7.7942    0.0000 C   0  0  0  0  0  0  0  0  0  0  0  0
   -6.0000    7.7942    0.0000 C   0  0  0  0  0  0  0  0  0  0  0  0
   -5.2500    9.0933    0.0000 C   0  0  0  0  0  0  0  0  0  0  0  0
   -3.0000   12.9904    0.0000 C   0  0  0  0  0  0  0  0  0  0  0  0
   -1.5000   12.9904    0.0000 O   0  0  0  0  0  0  0  0  0  0  0  0
   -3.7500   14.2894    0.0000 N   0  0  0  0  0  0  0  0  0  0  0  0
   -3.0000   15.5885    0.0000 C   0  0  0  0  0  0  0  0  0  0  0  0
   -3.7500   16.8875    0.0000 C   0  0  0  0  0  0  0  0  0  0  0  0
   -5.2500   16.8875    0.0000 C   0  0  0  0  0  0  0  0  0  0  0  0
   -6.0000   15.5885    0.0000 C   0  0  0  0  0  0  0  0  0  0  0  0
   -7.5000   15.5885    0.0000 C   0  0  0  0  0  0  0  0  0  0  0  0
   -8.2500   16.8875    0.0000 C   0  0  0  0  0  0  0  0  0  0  0  0
   -7.5000   18.1865    0.0000 C   0  0  0  0  0  0  0  0  0  0  0  0
   -6.0000   18.1865    0.0000 C   0  0  0  0  0  0  0  0  0  0  0  0
   -1.5000   15.5885    0.0000 C   0  0  0  0  0  0  0  0  0  0  0  0
   -0.7500   14.2894    0.0000 O   0  0  0  0  0  0  0  0  0  0  0  0
   -0.7500   16.8875    0.0000 O   0  0  0  0  0  0  0  0  0  0  0  0
  1  2  1  0
  2  3  1  0
  2  4  1  0
  2  5  1  0
  5  6  1  0
  6  7  2  0
  6  8  1  0
  8  9  1  0
  9 10  1  0
 10 11  1  0
 11 12  1  0
 12 13  1  0
 13 14  1  0
 14 15  2  0
 14 16  1  0
 16 17  1  0
 17 18  1  0
 18 19  1  0
 19 20  2  0
 20 21  1  0
 21 22  2  0
 22 23  1  0
 23 24  2  0
 17 25  1  0
 25 26  2  0
 25 27  1  0
 27 28  1  0
 28 29  1  0
 29 30  1  0
 30 31  2  0
 31 32  1  0
 32 33  2  0
 33 34  1  0
 34 35  2  0
 28 36  1  0
 36 37  2  0
 36 38  1  0
 38 39  1  0
 39 40  1  0
 40 41  1  0
 41 42  2  0
 42 43  1  0
 43 44  2  0
 44 45  1  0
 45 46  2  0
 39 47  1  0
 47 48  2  0
 47 49  1  0
 49 50  1  0
 50 51  1  0
 51 52  1  0
 52 53  2  0
 53 54  1  0
 54 55  2  0
 55 56  1  0
 56 57  2  0
 50 58  1  0
 58 59  2  0
 58 60  1  0
 60 61  1  0
 61 62  1  0
 62 63  1  0
 63 64  2  0
 64 65  1  0
 65 66  2  0
 66 67  1  0
 67 68  2  0
 61 69  1  0
 69 70  2  0
 69 71  1  0
 13  8  1  0
 24 19  1  0
 35 30  1  0
 46 41  1  0
 57 52  1  0
 68 63  1  0
M  END
>  <Title>  (159) 
idAAGCgen4

$$$$

     RDKit          2D

 49 52  0  0  0  0  0  0  0  0999 V2000
    5.2500   -2.7990    0.0000 C   0  0  0  0  0  0  0  0  0  0  0  0
    5.2500   -1.2990    0.0000 C   0  0  0  0  0  0  0  0  0  0  0  0
    5.2500    0.2010    0.0000 C   0  0  0  0  0  0  0  0  0  0  0  0
    6.7500   -1.2990    0.0000 C   0  0  0  0  0  0  0  0  0  0  0  0
    3.7500   -1.2990    0.0000 N   0  0  0  0  0  0  0  0  0  0  0  0
    3.0000    0.0000    0.0000 C   0  0  0  0  0  0  0  0  0  0  0  0
    3.7500    1.2990    0.0000 O   0  0  0  0  0  0  0  0  0  0  0  0
    1.5000    0.0000    0.0000 C   0  0  0  0  0  0  0  0  0  0  0  0
    0.7500   -1.2990    0.0000 C   0  0  0  0  0  0  0  0  0  0  0  0
   -0.7500   -1.2990    0.0000 C   0  0  0  0  0  0  0  0  0  0  0  0
   -1.5000    0.0000    0.0000 C   0  0  0  0  0  0  0  0  0  0  0  0
   -3.0000    0.0000    0.0000 C   0  0  0  0  0  0  0  0  0  0  0  0
   -3.7500    1.2990    0.0000 C   0  0  0  0  0  0  0  0  0  0  0  0
   -3.0000    2.5981    0.0000 O   0  0  0  0  0  0  0  0  0  0  0  0
   -5.2500    1.2990    0.0000 C   0  0  0  0  0  0  0  0  0  0  0  0
   -6.0000    2.5981    0.0000 C   0  0  0  0  0  0  0  0  0  0  0  0
   -7.5000    2.5981    0.0000 C   0  0  0  0  0  0  0  0  0  0  0  0
   -8.2500    3.8971    0.0000 C   0  0  0  0  0  0  0  0  0  0  0  0
   -9.7500    3.8971    0.0000 C   0  0  0  0  0  0  0  0  0  0  0  0
  -10.5000    2.5981    0.0000 C   0  0  0  0  0  0  0  0  0  0  0  0
   -9.7500    1.2990    0.0000 C   0  0  0  0  0  0  0  0  0  0  0  0
   -8.2500    1.2990    0.0000 C   0  0  0  0  0  0  0  0  0  0  0  0
   -6.0000    0.0000    0.0000 C   0  0  0  0  0  0  0  0  0  0  0  0
   -5.2500   -1.2990    0.0000 O   0  0  0  0  0  0  0  0  0  0  0  0
   -7.5000    0.0000    0.0000 N   0  0  0  0  0  0  0  0  0  0  0  0
   -8.2500   -1.2990    0.0000 C   0  0  0  0  0  0  0  0  0  0  0  0
   -9.7500   -1.2990    0.0000 C   0  0  0  0  0  0  0  0  0  0  0  0
  -10.5000   -2.5981    0.0000 C   0  0  0  0  0  0  0  0  0  0  0  0
  -12.0000   -2.5981    0.0000 C   0  0  0  0  0  0  0  0  0  0  0  0
  -12.7500   -3.8971    0.0000 C   0  0  0  0  0  0  0  0  0  0  0  0
  -12.0000   -5.1962    0.0000 C   0  0  0  0  0  0  0  0  0  0  0  0
  -10.5000   -5.1962    0.0000 C   0  0  0  0  0  0  0  0  0  0  0  0
   -9.7500   -3.8971    0.0000 C   0  0  0  0  0  0  0  0  0  0  0  0
   -7.5000   -2.5981    0.0000 C   0  0  0  0  0  0  0  0  0  0  0  0
   -6.0000   -2.5981    0.0000 O   0  0  0  0  0  0  0  0  0  0  0  0
   -8.2500   -3.8971    0.0000 N   0  0  0  0  0  0  0  0  0  0  0  0
   -7.5000   -5.1962    0.0000 C   0  0  0  0  0  0  0  0  0  0  0  0
   -8.2500   -6.4952    0.0000 C   0  0  0  0  0  0  0  0  0  0  0  0
   -7.5000   -7.7942    0.0000 C   0  0  0  0  0  0  0  0  0  0  0  0
   -8.2500   -9.0933    0.0000 C   0  0  0  0  0  0  0  0  0  0  0  0
   -7.5000  -10.3923    0.0000 C   0  0  0  0  0  0  0  0  0  0  0  0
   -6.0000  -10.3923    0.0000 C   0  0  0  0  0  0  0  0  0  0  0  0
   -5.2500   -9.0933    0.0000 C   0  0  0  0  0  0  0  0  0  0  0  0
   -6.0000   -7.7942    0.0000 C   0  0  0  0  0  0  0  0  0  0  0  0
   -6.0000   -5.1962    0.0000 C   0  0  0  0  0  0  0  0  0  0  0  0
   -5.2500   -3.8971    0.0000 O   0  0  0  0  0  0  0  0  0  0  0  0
   -5.2500   -6.4952    0.0000 O   0  0  0  0  0  0  0  0  0  0  0  0
   -0.7500    1.2990    0.0000 C   0  0  0  0  0  0  0  0  0  0  0  0
    0.7500    1.2990    0.0000 C   0  0  0  0  0  0  0  0  0  0  0  0
  1  2  1  0
  2  3  1  0
  2  4  1  0
  2  5  1  0
  5  6  1  0
  6  7  2  0
  6  8  1  0
  8  9  1  0
  9 10  1  0
 10 11  1  0
 11 12  1  0
 12 13  1  0
 13 14  1  0
 13 15  1  0
 15 16  1  0
 16 17  1  0
 17 18  2  0
 18 19  1  0
 19 20  2  0
 20 21  1  0
 21 22  2  0
 15 23  1  0
 23 24  2  0
 23 25  1  0
 25 26  1  0
 26 27  1  0
 27 28  1  0
 28 29  2  0
 29 30  1  0
 30 31  2  0
 31 32  1  0
 32 33  2  0
 26 34  1  0
 34 35  2  0
 34 36  1  0
 36 37  1  0
 37 38  1  0
 38 39  1  0
 39 40  2  0
 40 41  1  0
 41 42  2  0
 42 43  1  0
 43 44  2  0
 37 45  1  0
 45 46  2  0
 45 47  1  0
 11 48  1  0
 48 49  1  0
 49  8  1  0
 22 17  1  0
 33 28  1  0
 44 39  1  0
M  END
>  <Title>  (160) 
idAAGDgen4

$$$$

     RDKit          2D

 69 76  0  0  0  0  0  0  0  0999 V2000
   -0.7500   -3.8971    0.0000 O   0  0  0  0  0  0  0  0  0  0  0  0
    0.7500   -3.8971    0.0000 C   0  0  0  0  0  0  0  0  0  0  0  0
    1.5000   -5.1962    0.0000 N   0  0  0  0  0  0  0  0  0  0  0  0
    0.7500   -6.4952    0.0000 C   0  0  0  0  0  0  0  0  0  0  0  0
    1.5000   -7.7942    0.0000 C   0  0  0  0  0  0  0  0  0  0  0  0
    0.7500   -9.0933    0.0000 C   0  0  0  0  0  0  0  0  0  0  0  0
   -0.7500   -9.0933    0.0000 C   0  0  0  0  0  0  0  0  0  0  0  0
   -1.5000  -10.3923    0.0000 C   0  0  0  0  0  0  0  0  0  0  0  0
   -0.7500  -11.6913    0.0000 C   0  0  0  0  0  0  0  0  0  0  0  0
    0.7500  -11.6913    0.0000 C   0  0  0  0  0  0  0  0  0  0  0  0
    1.5000  -10.3923    0.0000 C   0  0  0  0  0  0  0  0  0  0  0  0
   -0.7500   -6.4952    0.0000 C   0  0  0  0  0  0  0  0  0  0  0  0
   -1.5000   -5.1962    0.0000 O   0  0  0  0  0  0  0  0  0  0  0  0
   -1.5000   -7.7942    0.0000 N   0  0  0  0  0  0  0  0  0  0  0  0
   -3.0000   -7.7942    0.0000 C   0  0  0  0  0  0  0  0  0  0  0  0
   -3.7500   -9.0933    0.0000 C   0  0  0  0  0  0  0  0  0  0  0  0
   -5.2500   -9.0933    0.0000 C   0  0  0  0  0  0  0  0  0  0  0  0
   -6.0000   -7.7942    0.0000 C   0  0  0  0  0  0  0  0  0  0  0  0
   -7.5000   -7.7942    0.0000 C   0  0  0  0  0  0  0  0  0  0  0  0
   -8.2500   -9.0933    0.0000 C   0  0  0  0  0  0  0  0  0  0  0  0
   -7.5000  -10.3923    0.0000 C   0  0  0  0  0  0  0  0  0  0  0  0
   -6.0000  -10.3923    0.0000 C   0  0  0  0  0  0  0  0  0  0  0  0
   -3.7500   -6.4952    0.0000 C   0  0  0  0  0  0  0  0  0  0  0  0
   -3.0000   -5.1962    0.0000 O   0  0  0  0  0  0  0  0  0  0  0  0
   -5.2500   -6.4952    0.0000 N   0  0  0  0  0  0  0  0  0  0  0  0
   -6.0000   -5.1962    0.0000 C   0  0  0  0  0  0  0  0  0  0  0  0
   -7.5000   -5.1962    0.0000 C   0  0  0  0  0  0  0  0  0  0  0  0
   -8.2500   -3.8971    0.0000 C   0  0  0  0  0  0  0  0  0  0  0  0
   -7.5000   -2.5981    0.0000 C   0  0  0  0  0  0  0  0  0  0  0  0
   -8.2500   -1.2990    0.0000 C   0  0  0  0  0  0  0  0  0  0  0  0
   -9.7500   -1.2990    0.0000 C   0  0  0  0  0  0  0  0  0  0  0  0
  -10.5000   -2.5981    0.0000 C   0  0  0  0  0  0  0  0  0  0  0  0
   -9.7500   -3.8971    0.0000 C   0  0  0  0  0  0  0  0  0  0  0  0
   -5.2500   -3.8971    0.0000 C   0  0  0  0  0  0  0  0  0  0  0  0
   -3.7500   -3.8971    0.0000 O   0  0  0  0  0  0  0  0  0  0  0  0
   -6.0000   -2.5981    0.0000 N   0  0  0  0  0  0  0  0  0  0  0  0
   -5.2500   -1.2990    0.0000 C   0  0  0  0  0  0  0  0  0  0  0  0
   -6.0000   -0.0000    0.0000 C   0  0  0  0  0  0  0  0  0  0  0  0
   -5.2500    1.2990    0.0000 C   0  0  0  0  0  0  0  0  0  0  0  0
   -3.7500    1.2990    0.0000 C   0  0  0  0  0  0  0  0  0  0  0  0
   -3.0000    2.5981    0.0000 C   0  0  0  0  0  0  0  0  0  0  0  0
   -3.7500    3.8971    0.0000 C   0  0  0  0  0  0  0  0  0  0  0  0
   -5.2500    3.8971    0.0000 C   0  0  0  0  0  0  0  0  0  0  0  0
   -6.0000    2.5981    0.0000 C   0  0  0  0  0  0  0  0  0  0  0  0
   -3.7500   -1.2990    0.0000 C   0  0  0  0  0  0  0  0  0  0  0  0
   -3.0000   -2.5981    0.0000 O   0  0  0  0  0  0  0  0  0  0  0  0
   -3.0000   -0.0000    0.0000 N   0  0  0  0  0  0  0  0  0  0  0  0
   -1.5000   -0.0000    0.0000 C   0  0  0  0  0  0  0  0  0  0  0  0
   -0.7500    1.2990    0.0000 C   0  0  0  0  0  0  0  0  0  0  0  0
    0.7500    1.2990    0.0000 C   0  0  0  0  0  0  0  0  0  0  0  0
    1.5000   -0.0000    0.0000 C   0  0  0  0  0  0  0  0  0  0  0  0
    3.0000   -0.0000    0.0000 C   0  0  0  0  0  0  0  0  0  0  0  0
    3.7500    1.2990    0.0000 C   0  0  0  0  0  0  0  0  0  0  0  0
    3.0000    2.5981    0.0000 C   0  0  0  0  0  0  0  0  0  0  0  0
    1.5000    2.5981    0.0000 C   0  0  0  0  0  0  0  0  0  0  0  0
   -0.7500   -1.2990    0.0000 C   0  0  0  0  0  0  0  0  0  0  0  0
    0.7500   -1.2990    0.0000 O   0  0  0  0  0  0  0  0  0  0  0  0
   -1.5000   -2.5981    0.0000 O   0  0  0  0  0  0  0  0  0  0  0  0
    1.5000   -2.5981    0.0000 O   0  0  0  0  0  0  0  0  0  0  0  0
    3.0000   -2.5981    0.0000 C   0  0  0  0  0  0  0  0  0  0  0  0
    3.7500   -3.8971    0.0000 C   0  0  0  0  0  0  0  0  0  0  0  0
    5.2500   -3.8971    0.0000 C   0  0  0  0  0  0  0  0  0  0  0  0
    6.0000   -2.5981    0.0000 C   0  0  0  0  0  0  0  0  0  0  0  0
    5.2500   -1.2990    0.0000 C   0  0  0  0  0  0  0  0  0  0  0  0
    3.0000   -3.6962    0.0000 C   0  0  0  0  0  0  0  0  0  0  0  0
    3.0000   -5.1962    0.0000 C   0  0  0  0  0  0  0  0  0  0  0  0
    4.5000   -5.1962    0.0000 C   0  0  0  0  0  0  0  0  0  0  0  0
    2.2500   -3.8971    0.0000 C   0  0  0  0  0  0  0  0  0  0  0  0
    3.7500   -1.2990    0.0000 C   0  0  0  0  0  0  0  0  0  0  0  0
  1  2  2  0
  2  3  1  0
  3  4  1  0
  4  5  1  0
  5  6  1  0
  6  7  2  0
  7  8  1  0
  8  9  2  0
  9 10  1  0
 10 11  2  0
  4 12  1  0
 12 13  2  0
 12 14  1  0
 14 15  1  0
 15 16  1  0
 16 17  1  0
 17 18  2  0
 18 19  1  0
 19 20  2  0
 20 21  1  0
 21 22  2  0
 15 23  1  0
 23 24  2  0
 23 25  1  0
 25 26  1  0
 26 27  1  0
 27 28  1  0
 28 29  2  0
 29 30  1  0
 30 31  2  0
 31 32  1  0
 32 33  2  0
 26 34  1  0
 34 35  2  0
 34 36  1  0
 36 37  1  0
 37 38  1  0
 38 39  1  0
 39 40  2  0
 40 41  1  0
 41 42  2  0
 42 43  1  0
 43 44  2  0
 37 45  1  0
 45 46  2  0
 45 47  1  0
 47 48  1  0
 48 49  1  0
 49 50  1  0
 50 51  2  0
 51 52  1  0
 52 53  2  0
 53 54  1  0
 54 55  2  0
 48 56  1  0
 56 57  2  0
 56 58  1  0
  2 59  1  0
 59 60  1  0
 60 61  1  0
 61 62  1  0
 62 63  1  0
 63 64  1  0
 64 65  1  0
 65 66  1  0
 66 67  1  0
 66 68  1  0
 64 69  1  0
 11  6  1  0
 22 17  1  0
 33 28  1  0
 44 39  1  0
 55 50  1  0
 68 60  1  0
 69 60  1  0
 67 62  1  0
M  END
>  <Title>  (161) 
idAAGEgen4

$$$$

     RDKit          2D

 60 64  0  0  0  0  0  0  0  0999 V2000
    5.2500   -2.7990    0.0000 C   0  0  0  0  0  0  0  0  0  0  0  0
    5.2500   -1.2990    0.0000 C   0  0  0  0  0  0  0  0  0  0  0  0
    5.2500    0.2010    0.0000 C   0  0  0  0  0  0  0  0  0  0  0  0
    6.7500   -1.2990    0.0000 C   0  0  0  0  0  0  0  0  0  0  0  0
    3.7500   -1.2990    0.0000 N   0  0  0  0  0  0  0  0  0  0  0  0
    3.0000    0.0000    0.0000 C   0  0  0  0  0  0  0  0  0  0  0  0
    3.7500    1.2990    0.0000 O   0  0  0  0  0  0  0  0  0  0  0  0
    1.5000    0.0000    0.0000 C   0  0  0  0  0  0  0  0  0  0  0  0
    0.7500   -1.2990    0.0000 C   0  0  0  0  0  0  0  0  0  0  0  0
   -0.7500   -1.2990    0.0000 C   0  0  0  0  0  0  0  0  0  0  0  0
   -1.5000    0.0000    0.0000 C   0  0  0  0  0  0  0  0  0  0  0  0
   -0.7500    1.2990    0.0000 C   0  0  0  0  0  0  0  0  0  0  0  0
    0.7500    1.2990    0.0000 C   0  0  0  0  0  0  0  0  0  0  0  0
    1.5000    2.5981    0.0000 C   0  0  0  0  0  0  0  0  0  0  0  0
    0.7500    3.8971    0.0000 O   0  0  0  0  0  0  0  0  0  0  0  0
    3.0000    2.5981    0.0000 N   0  0  0  0  0  0  0  0  0  0  0  0
    3.7500    3.8971    0.0000 C   0  0  0  0  0  0  0  0  0  0  0  0
    5.2500    3.8971    0.0000 C   0  0  0  0  0  0  0  0  0  0  0  0
    6.0000    5.1962    0.0000 C   0  0  0  0  0  0  0  0  0  0  0  0
    7.5000    5.1962    0.0000 C   0  0  0  0  0  0  0  0  0  0  0  0
    8.2500    6.4952    0.0000 C   0  0  0  0  0  0  0  0  0  0  0  0
    7.5000    7.7942    0.0000 C   0  0  0  0  0  0  0  0  0  0  0  0
    6.0000    7.7942    0.0000 C   0  0  0  0  0  0  0  0  0  0  0  0
    5.2500    6.4952    0.0000 C   0  0  0  0  0  0  0  0  0  0  0  0
    3.0000    5.1962    0.0000 C   0  0  0  0  0  0  0  0  0  0  0  0
    1.5000    5.1962    0.0000 O   0  0  0  0  0  0  0  0  0  0  0  0
    3.7500    6.4952    0.0000 N   0  0  0  0  0  0  0  0  0  0  0  0
    3.0000    7.7942    0.0000 C   0  0  0  0  0  0  0  0  0  0  0  0
    3.7500    9.0933    0.0000 C   0  0  0  0  0  0  0  0  0  0  0  0
    3.0000   10.3923    0.0000 C   0  0  0  0  0  0  0  0  0  0  0  0
    3.7500   11.6913    0.0000 C   0  0  0  0  0  0  0  0  0  0  0  0
    3.0000   12.9904    0.0000 C   0  0  0  0  0  0  0  0  0  0  0  0
    1.5000   12.9904    0.0000 C   0  0  0  0  0  0  0  0  0  0  0  0
    0.7500   11.6913    0.0000 C   0  0  0  0  0  0  0  0  0  0  0  0
    1.5000   10.3923    0.0000 C   0  0  0  0  0  0  0  0  0  0  0  0
    1.5000    7.7942    0.0000 C   0  0  0  0  0  0  0  0  0  0  0  0
    0.7500    6.4952    0.0000 O   0  0  0  0  0  0  0  0  0  0  0  0
    0.7500    9.0933    0.0000 N   0  0  0  0  0  0  0  0  0  0  0  0
   -0.7500    9.0933    0.0000 C   0  0  0  0  0  0  0  0  0  0  0  0
   -1.5000   10.3923    0.0000 C   0  0  0  0  0  0  0  0  0  0  0  0
   -3.0000   10.3923    0.0000 C   0  0  0  0  0  0  0  0  0  0  0  0
   -3.7500   11.6913    0.0000 C   0  0  0  0  0  0  0  0  0  0  0  0
   -5.2500   11.6913    0.0000 C   0  0  0  0  0  0  0  0  0  0  0  0
   -6.0000   10.3923    0.0000 C   0  0  0  0  0  0  0  0  0  0  0  0
   -5.2500    9.0933    0.0000 C   0  0  0  0  0  0  0  0  0  0  0  0
   -3.7500    9.0933    0.0000 C   0  0  0  0  0  0  0  0  0  0  0  0
   -1.5000    7.7942    0.0000 C   0  0  0  0  0  0  0  0  0  0  0  0
   -0.7500    6.4952    0.0000 O   0  0  0  0  0  0  0  0  0  0  0  0
   -3.0000    7.7942    0.0000 N   0  0  0  0  0  0  0  0  0  0  0  0
   -3.7500    6.4952    0.0000 C   0  0  0  0  0  0  0  0  0  0  0  0
   -5.2500    6.4952    0.0000 C   0  0  0  0  0  0  0  0  0  0  0  0
   -6.0000    5.1962    0.0000 C   0  0  0  0  0  0  0  0  0  0  0  0
   -7.5000    5.1962    0.0000 C   0  0  0  0  0  0  0  0  0  0  0  0
   -8.2500    3.8971    0.0000 C   0  0  0  0  0  0  0  0  0  0  0  0
   -7.5000    2.5981    0.0000 C   0  0  0  0  0  0  0  0  0  0  0  0
   -6.0000    2.5981    0.0000 C   0  0  0  0  0  0  0  0  0  0  0  0
   -5.2500    3.8971    0.0000 C   0  0  0  0  0  0  0  0  0  0  0  0
   -3.0000    5.1962    0.0000 C   0  0  0  0  0  0  0  0  0  0  0  0
   -1.5000    5.1962    0.0000 O   0  0  0  0  0  0  0  0  0  0  0  0
   -3.7500    3.8971    0.0000 O   0  0  0  0  0  0  0  0  0  0  0  0
  1  2  1  0
  2  3  1  0
  2  4  1  0
  2  5  1  0
  5  6  1  0
  6  7  2  0
  6  8  1  0
  8  9  1  0
  9 10  1  0
 10 11  1  0
 11 12  1  0
 12 13  1  0
 13 14  1  0
 14 15  2  0
 14 16  1  0
 16 17  1  0
 17 18  1  0
 18 19  1  0
 19 20  2  0
 20 21  1  0
 21 22  2  0
 22 23  1  0
 23 24  2  0
 17 25  1  0
 25 26  2  0
 25 27  1  0
 27 28  1  0
 28 29  1  0
 29 30  1  0
 30 31  2  0
 31 32  1  0
 32 33  2  0
 33 34  1  0
 34 35  2  0
 28 36  1  0
 36 37  2  0
 36 38  1  0
 38 39  1  0
 39 40  1  0
 40 41  1  0
 41 42  2  0
 42 43  1  0
 43 44  2  0
 44 45  1  0
 45 46  2  0
 39 47  1  0
 47 48  2  0
 47 49  1  0
 49 50  1  0
 50 51  1  0
 51 52  1  0
 52 53  2  0
 53 54  1  0
 54 55  2  0
 55 56  1  0
 56 57  2  0
 50 58  1  0
 58 59  2  0
 58 60  1  0
 13  8  1  0
 24 19  1  0
 35 30  1  0
 46 41  1  0
 57 52  1  0
M  END
>  <Title>  (162) 
idAAGFgen4

$$$$

     RDKit          2D

 59 64  0  0  0  0  0  0  0  0999 V2000
    0.3360    3.2626    0.0000 C   0  0  0  0  0  0  0  0  0  0  0  0
    1.0860    4.5616    0.0000 C   0  0  0  0  0  0  0  0  0  0  0  0
    2.5860    4.5616    0.0000 C   0  0  0  0  0  0  0  0  0  0  0  0
    0.3360    5.8606    0.0000 C   0  0  0  0  0  0  0  0  0  0  0  0
    1.0860    7.1597    0.0000 N   0  0  0  0  0  0  0  0  0  0  0  0
    0.3360    8.4587    0.0000 C   0  0  0  0  0  0  0  0  0  0  0  0
   -1.1640    8.4587    0.0000 C   0  0  0  0  0  0  0  0  0  0  0  0
   -1.9140    7.1597    0.0000 O   0  0  0  0  0  0  0  0  0  0  0  0
   -1.9140    9.7578    0.0000 C   0  0  0  0  0  0  0  0  0  0  0  0
   -1.1640   11.0568    0.0000 C   0  0  0  0  0  0  0  0  0  0  0  0
    0.3360   11.0568    0.0000 C   0  0  0  0  0  0  0  0  0  0  0  0
    1.0860    9.7578    0.0000 C   0  0  0  0  0  0  0  0  0  0  0  0
    2.5860    9.7578    0.0000 C   0  0  0  0  0  0  0  0  0  0  0  0
    3.3360   11.0568    0.0000 C   0  0  0  0  0  0  0  0  0  0  0  0
    2.5860   12.3558    0.0000 C   0  0  0  0  0  0  0  0  0  0  0  0
    1.0860   12.3558    0.0000 C   0  0  0  0  0  0  0  0  0  0  0  0
   -3.4140    9.7578    0.0000 N   0  0  0  0  0  0  0  0  0  0  0  0
   -4.1640    8.4587    0.0000 C   0  0  0  0  0  0  0  0  0  0  0  0
   -3.4140    7.1597    0.0000 O   0  0  0  0  0  0  0  0  0  0  0  0
   -5.6640    8.4587    0.0000 C   0  0  0  0  0  0  0  0  0  0  0  0
   -6.4140    9.7578    0.0000 C   0  0  0  0  0  0  0  0  0  0  0  0
   -5.6640   11.0568    0.0000 C   0  0  0  0  0  0  0  0  0  0  0  0
   -4.1640   11.0568    0.0000 C   0  0  0  0  0  0  0  0  0  0  0  0
   -3.4140   12.3558    0.0000 C   0  0  0  0  0  0  0  0  0  0  0  0
   -4.1640   13.6549    0.0000 C   0  0  0  0  0  0  0  0  0  0  0  0
   -5.6640   13.6549    0.0000 C   0  0  0  0  0  0  0  0  0  0  0  0
   -6.4140   12.3558    0.0000 C   0  0  0  0  0  0  0  0  0  0  0  0
   -6.4140    7.1597    0.0000 N   0  0  0  0  0  0  0  0  0  0  0  0
   -5.6640    5.8606    0.0000 C   0  0  0  0  0  0  0  0  0  0  0  0
   -4.1640    5.8606    0.0000 O   0  0  0  0  0  0  0  0  0  0  0  0
   -6.4140    4.5616    0.0000 C   0  0  0  0  0  0  0  0  0  0  0  0
   -7.9140    4.5616    0.0000 C   0  0  0  0  0  0  0  0  0  0  0  0
   -8.6640    5.8606    0.0000 C   0  0  0  0  0  0  0  0  0  0  0  0
   -7.9140    7.1597    0.0000 C   0  0  0  0  0  0  0  0  0  0  0  0
   -8.6640    8.4587    0.0000 C   0  0  0  0  0  0  0  0  0  0  0  0
  -10.1640    8.4587    0.0000 C   0  0  0  0  0  0  0  0  0  0  0  0
  -10.9140    7.1597    0.0000 C   0  0  0  0  0  0  0  0  0  0  0  0
  -10.1640    5.8606    0.0000 C   0  0  0  0  0  0  0  0  0  0  0  0
   -5.6640    3.2626    0.0000 N   0  0  0  0  0  0  0  0  0  0  0  0
   -4.1640    3.2626    0.0000 C   0  0  0  0  0  0  0  0  0  0  0  0
   -3.4140    4.5616    0.0000 O   0  0  0  0  0  0  0  0  0  0  0  0
   -3.4140    1.9635    0.0000 O   0  0  0  0  0  0  0  0  0  0  0  0
   -4.1640    0.6645    0.0000 C   0  0  0  0  0  0  0  0  0  0  0  0
   -5.6557    0.5077    0.0000 C   0  0  0  0  0  0  0  0  0  0  0  0
   -5.9676   -0.9595    0.0000 O   0  0  0  0  0  0  0  0  0  0  0  0
   -4.6686   -1.7095    0.0000 C   0  0  0  0  0  0  0  0  0  0  0  0
   -4.0585   -3.0798    0.0000 O   0  0  0  0  0  0  0  0  0  0  0  0
   -2.5667   -2.9231    0.0000 C   0  0  0  0  0  0  0  0  0  0  0  0
   -2.2548   -1.4558    0.0000 C   0  0  0  0  0  0  0  0  0  0  0  0
   -3.5539   -0.7058    0.0000 C   0  0  0  0  0  0  0  0  0  0  0  0
    2.5860    7.1597    0.0000 S   0  0  0  0  0  0  0  0  0  0  0  0
    2.5860    8.6597    0.0000 O   0  0  0  0  0  0  0  0  0  0  0  0
    2.5860    5.6597    0.0000 O   0  0  0  0  0  0  0  0  0  0  0  0
    4.0860    7.1597    0.0000 C   0  0  0  0  0  0  0  0  0  0  0  0
    4.8360    5.8606    0.0000 C   0  0  0  0  0  0  0  0  0  0  0  0
    6.3360    5.8606    0.0000 C   0  0  0  0  0  0  0  0  0  0  0  0
    7.0860    7.1597    0.0000 C   0  0  0  0  0  0  0  0  0  0  0  0
    6.3360    8.4587    0.0000 C   0  0  0  0  0  0  0  0  0  0  0  0
    4.8360    8.4587    0.0000 C   0  0  0  0  0  0  0  0  0  0  0  0
  1  2  1  0
  2  3  1  0
  2  4  1  0
  4  5  1  0
  5  6  1  0
  6  7  1  0
  7  8  1  0
  7  9  1  0
  9 10  1  0
 10 11  1  0
 11 12  2  0
 12 13  1  0
 13 14  2  0
 14 15  1  0
 15 16  2  0
  9 17  1  0
 17 18  1  0
 18 19  2  0
 18 20  1  0
 20 21  1  0
 21 22  1  0
 22 23  2  0
 23 24  1  0
 24 25  2  0
 25 26  1  0
 26 27  2  0
 20 28  1  0
 28 29  1  0
 29 30  2  0
 29 31  1  0
 31 32  1  0
 32 33  1  0
 33 34  2  0
 34 35  1  0
 35 36  2  0
 36 37  1  0
 37 38  2  0
 31 39  1  0
 39 40  1  0
 40 41  2  0
 40 42  1  0
 42 43  1  0
 43 44  1  0
 44 45  1  0
 45 46  1  0
 46 47  1  0
 47 48  1  0
 48 49  1  0
 49 50  1  0
  5 51  1  0
 51 52  2  0
 51 53  2  0
 51 54  1  0
 54 55  2  0
 55 56  1  0
 56 57  2  0
 57 58  1  0
 58 59  2  0
 16 11  1  0
 27 22  1  0
 38 33  1  0
 50 43  1  0
 59 54  1  0
 50 46  1  0
M  END
>  <Title>  (163) 
idAAGGgen4

$$$$

     RDKit          2D

 61 68  0  0  0  0  0  0  0  0999 V2000
   12.0248    6.3978    0.0000 O   0  0  0  0  0  0  0  0  0  0  0  0
   10.7258    5.6478    0.0000 C   0  0  0  0  0  0  0  0  0  0  0  0
    9.4267    6.3978    0.0000 N   0  0  0  0  0  0  0  0  0  0  0  0
    9.4267    7.8978    0.0000 C   0  0  0  0  0  0  0  0  0  0  0  0
    8.1277    8.6478    0.0000 C   0  0  0  0  0  0  0  0  0  0  0  0
    7.1635    7.4987    0.0000 C   0  0  0  0  0  0  0  0  0  0  0  0
    5.6863    7.7592    0.0000 C   0  0  0  0  0  0  0  0  0  0  0  0
    4.7221    6.6101    0.0000 C   0  0  0  0  0  0  0  0  0  0  0  0
    5.2351    5.2006    0.0000 C   0  0  0  0  0  0  0  0  0  0  0  0
    6.7123    4.9401    0.0000 C   0  0  0  0  0  0  0  0  0  0  0  0
    7.6765    6.0892    0.0000 C   0  0  0  0  0  0  0  0  0  0  0  0
    7.1635    9.7968    0.0000 C   0  0  0  0  0  0  0  0  0  0  0  0
    8.6407   10.0573    0.0000 C   0  0  0  0  0  0  0  0  0  0  0  0
   10.7258    4.1478    0.0000 N   0  0  0  0  0  0  0  0  0  0  0  0
   12.0248    3.3978    0.0000 C   0  0  0  0  0  0  0  0  0  0  0  0
   13.3951    4.0079    0.0000 C   0  0  0  0  0  0  0  0  0  0  0  0
   14.3988    2.8931    0.0000 C   0  0  0  0  0  0  0  0  0  0  0  0
   13.6488    1.5941    0.0000 C   0  0  0  0  0  0  0  0  0  0  0  0
   12.1816    1.9060    0.0000 C   0  0  0  0  0  0  0  0  0  0  0  0
   11.0669    0.9023    0.0000 C   0  0  0  0  0  0  0  0  0  0  0  0
    9.6403    1.3658    0.0000 N   0  0  0  0  0  0  0  0  0  0  0  0
    9.3284    2.8330    0.0000 C   0  0  0  0  0  0  0  0  0  0  0  0
    7.9018    3.2966    0.0000 C   0  0  0  0  0  0  0  0  0  0  0  0
    6.7871    2.2929    0.0000 C   0  0  0  0  0  0  0  0  0  0  0  0
    7.0990    0.8256    0.0000 C   0  0  0  0  0  0  0  0  0  0  0  0
    8.5256    0.3621    0.0000 C   0  0  0  0  0  0  0  0  0  0  0  0
    8.8374   -1.1051    0.0000 C   0  0  0  0  0  0  0  0  0  0  0  0
    9.6327   -1.1607    0.0000 O   0  0  0  0  0  0  0  0  0  0  0  0
    7.7227   -2.1088    0.0000 N   0  0  0  0  0  0  0  0  0  0  0  0
    8.0346   -3.5760    0.0000 C   0  0  0  0  0  0  0  0  0  0  0  0
    9.4612   -4.0396    0.0000 C   0  0  0  0  0  0  0  0  0  0  0  0
   10.5759   -3.0359    0.0000 C   0  0  0  0  0  0  0  0  0  0  0  0
   12.0025   -3.4994    0.0000 C   0  0  0  0  0  0  0  0  0  0  0  0
   13.1172   -2.4957    0.0000 C   0  0  0  0  0  0  0  0  0  0  0  0
   12.8053   -1.0285    0.0000 C   0  0  0  0  0  0  0  0  0  0  0  0
   11.3787   -0.5649    0.0000 C   0  0  0  0  0  0  0  0  0  0  0  0
   10.2640   -1.5686    0.0000 C   0  0  0  0  0  0  0  0  0  0  0  0
    6.9199   -4.5797    0.0000 C   0  0  0  0  0  0  0  0  0  0  0  0
    7.5775   -5.9279    0.0000 O   0  0  0  0  0  0  0  0  0  0  0  0
    5.4933   -4.1162    0.0000 N   0  0  0  0  0  0  0  0  0  0  0  0
    4.3786   -5.1199    0.0000 C   0  0  0  0  0  0  0  0  0  0  0  0
    4.6904   -6.5871    0.0000 C   0  0  0  0  0  0  0  0  0  0  0  0
    6.1170   -7.0506    0.0000 C   0  0  0  0  0  0  0  0  0  0  0  0
    6.4289   -8.5179    0.0000 C   0  0  0  0  0  0  0  0  0  0  0  0
    7.8555   -8.9814    0.0000 C   0  0  0  0  0  0  0  0  0  0  0  0
    8.9702   -7.9777    0.0000 C   0  0  0  0  0  0  0  0  0  0  0  0
    8.6583   -6.5105    0.0000 C   0  0  0  0  0  0  0  0  0  0  0  0
    7.2317   -6.0469    0.0000 C   0  0  0  0  0  0  0  0  0  0  0  0
    2.9520   -4.6564    0.0000 C   0  0  0  0  0  0  0  0  0  0  0  0
    1.8373   -5.6601    0.0000 O   0  0  0  0  0  0  0  0  0  0  0  0
    2.6401   -3.1891    0.0000 N   0  0  0  0  0  0  0  0  0  0  0  0
    1.2135   -2.7256    0.0000 C   0  0  0  0  0  0  0  0  0  0  0  0
    0.7500   -1.2990    0.0000 C   0  0  0  0  0  0  0  0  0  0  0  0
    1.5000    0.0000    0.0000 C   0  0  0  0  0  0  0  0  0  0  0  0
    0.7500    1.2990    0.0000 C   0  0  0  0  0  0  0  0  0  0  0  0
   -0.7500    1.2990    0.0000 C   0  0  0  0  0  0  0  0  0  0  0  0
   -1.5000    0.0000    0.0000 C   0  0  0  0  0  0  0  0  0  0  0  0
   -0.7500   -1.2990    0.0000 C   0  0  0  0  0  0  0  0  0  0  0  0
   -1.2135   -2.7256    0.0000 C   0  0  0  0  0  0  0  0  0  0  0  0
    0.0000   -3.6073    0.0000 C   0  0  0  0  0  0  0  0  0  0  0  0
    0.0000   -5.1073    0.0000 O   0  0  0  0  0  0  0  0  0  0  0  0
  1  2  2  0
  2  3  1  0
  3  4  1  0
  4  5  1  0
  5  6  1  0
  6  7  2  0
  7  8  1  0
  8  9  2  0
  9 10  1  0
 10 11  2  0
  5 12  1  0
 12 13  1  0
  2 14  1  0
 14 15  1  0
 15 16  1  0
 16 17  1  0
 17 18  1  0
 18 19  1  0
 19 20  1  0
 20 21  1  0
 21 22  1  0
 22 23  1  0
 23 24  1  0
 24 25  1  0
 25 26  1  0
 26 27  1  0
 27 28  2  0
 27 29  1  0
 29 30  1  0
 30 31  1  0
 31 32  1  0
 32 33  2  0
 33 34  1  0
 34 35  2  0
 35 36  1  0
 36 37  2  0
 30 38  1  0
 38 39  2  0
 38 40  1  0
 40 41  1  0
 41 42  1  0
 42 43  1  0
 43 44  2  0
 44 45  1  0
 45 46  2  0
 46 47  1  0
 47 48  2  0
 41 49  1  0
 49 50  2  0
 49 51  1  0
 51 52  1  0
 52 53  1  0
 53 54  2  0
 54 55  1  0
 55 56  2  0
 56 57  1  0
 57 58  2  0
 58 59  1  0
 59 60  1  0
 60 61  1  0
 13  5  1  0
 19 15  1  0
 26 21  1  0
 37 32  1  0
 48 43  1  0
 60 52  1  0
 11  6  1  0
 58 53  1  0
M  END
>  <Title>  (164) 
idAAGHgen4

$$$$

     RDKit          2D

 56 59  0  0  0  0  0  0  0  0999 V2000
   -6.0000   -2.5981    0.0000 C   0  0  0  0  0  0  0  0  0  0  0  0
   -5.2500   -3.8971    0.0000 C   0  0  0  0  0  0  0  0  0  0  0  0
   -6.0000   -5.1962    0.0000 O   0  0  0  0  0  0  0  0  0  0  0  0
   -3.7500   -3.8971    0.0000 N   0  0  0  0  0  0  0  0  0  0  0  0
   -3.0000   -5.1962    0.0000 C   0  0  0  0  0  0  0  0  0  0  0  0
   -1.5000   -5.1962    0.0000 C   0  0  0  0  0  0  0  0  0  0  0  0
   -0.7500   -6.4952    0.0000 O   0  0  0  0  0  0  0  0  0  0  0  0
   -0.7500   -3.8971    0.0000 N   0  0  0  0  0  0  0  0  0  0  0  0
    0.7500   -3.8971    0.0000 C   0  0  0  0  0  0  0  0  0  0  0  0
    1.5000   -2.5981    0.0000 C   0  0  0  0  0  0  0  0  0  0  0  0
    0.7500   -1.2990    0.0000 C   0  0  0  0  0  0  0  0  0  0  0  0
    1.5000    0.0000    0.0000 C   0  0  0  0  0  0  0  0  0  0  0  0
    0.7500    1.2990    0.0000 C   0  0  0  0  0  0  0  0  0  0  0  0
   -0.7500    1.2990    0.0000 C   0  0  0  0  0  0  0  0  0  0  0  0
   -1.5000    0.0000    0.0000 C   0  0  0  0  0  0  0  0  0  0  0  0
   -0.7500   -1.2990    0.0000 C   0  0  0  0  0  0  0  0  0  0  0  0
    1.5000   -5.1962    0.0000 C   0  0  0  0  0  0  0  0  0  0  0  0
    3.0000   -5.1962    0.0000 O   0  0  0  0  0  0  0  0  0  0  0  0
    0.7500   -6.4952    0.0000 C   0  0  0  0  0  0  0  0  0  0  0  0
    1.5000   -7.7942    0.0000 N   0  0  0  0  0  0  0  0  0  0  0  0
    0.7500   -9.0933    0.0000 C   0  0  0  0  0  0  0  0  0  0  0  0
    1.5000  -10.3923    0.0000 C   0  0  0  0  0  0  0  0  0  0  0  0
    0.7500  -11.6913    0.0000 C   0  0  0  0  0  0  0  0  0  0  0  0
    1.5000  -12.9904    0.0000 C   0  0  0  0  0  0  0  0  0  0  0  0
    3.0000  -12.9904    0.0000 C   0  0  0  0  0  0  0  0  0  0  0  0
    3.7500  -11.6913    0.0000 C   0  0  0  0  0  0  0  0  0  0  0  0
    3.0000  -10.3923    0.0000 C   0  0  0  0  0  0  0  0  0  0  0  0
    3.0000   -7.7942    0.0000 C   0  0  0  0  0  0  0  0  0  0  0  0
    3.7500   -6.4952    0.0000 O   0  0  0  0  0  0  0  0  0  0  0  0
    3.7500   -9.0933    0.0000 N   0  0  0  0  0  0  0  0  0  0  0  0
    5.2500   -9.0933    0.0000 C   0  0  0  0  0  0  0  0  0  0  0  0
    6.0000  -10.3923    0.0000 C   0  0  0  0  0  0  0  0  0  0  0  0
    7.5000  -10.3923    0.0000 C   0  0  0  0  0  0  0  0  0  0  0  0
    8.2500  -11.6913    0.0000 C   0  0  0  0  0  0  0  0  0  0  0  0
    9.7500  -11.6913    0.0000 C   0  0  0  0  0  0  0  0  0  0  0  0
   10.5000  -10.3923    0.0000 C   0  0  0  0  0  0  0  0  0  0  0  0
    9.7500   -9.0933    0.0000 C   0  0  0  0  0  0  0  0  0  0  0  0
    8.2500   -9.0933    0.0000 C   0  0  0  0  0  0  0  0  0  0  0  0
    6.0000   -7.7942    0.0000 C   0  0  0  0  0  0  0  0  0  0  0  0
    5.2500   -6.4952    0.0000 O   0  0  0  0  0  0  0  0  0  0  0  0
    7.5000   -7.7942    0.0000 N   0  0  0  0  0  0  0  0  0  0  0  0
    8.2500   -6.4952    0.0000 C   0  0  0  0  0  0  0  0  0  0  0  0
    9.7500   -6.4952    0.0000 C   0  0  0  0  0  0  0  0  0  0  0  0
   10.5000   -5.1962    0.0000 C   0  0  0  0  0  0  0  0  0  0  0  0
   12.0000   -5.1962    0.0000 C   0  0  0  0  0  0  0  0  0  0  0  0
   12.7500   -3.8971    0.0000 C   0  0  0  0  0  0  0  0  0  0  0  0
   12.0000   -2.5981    0.0000 C   0  0  0  0  0  0  0  0  0  0  0  0
   10.5000   -2.5981    0.0000 C   0  0  0  0  0  0  0  0  0  0  0  0
    9.7500   -3.8971    0.0000 C   0  0  0  0  0  0  0  0  0  0  0  0
    7.5000   -5.1962    0.0000 C   0  0  0  0  0  0  0  0  0  0  0  0
    6.0000   -5.1962    0.0000 O   0  0  0  0  0  0  0  0  0  0  0  0
    8.2500   -3.8971    0.0000 O   0  0  0  0  0  0  0  0  0  0  0  0
   -3.7500   -6.4952    0.0000 C   0  0  0  0  0  0  0  0  0  0  0  0
   -5.0490   -5.7452    0.0000 C   0  0  0  0  0  0  0  0  0  0  0  0
   -2.4510   -7.2452    0.0000 C   0  0  0  0  0  0  0  0  0  0  0  0
   -4.5000   -7.7942    0.0000 C   0  0  0  0  0  0  0  0  0  0  0  0
  1  2  1  0
  2  3  2  0
  2  4  1  0
  4  5  1  0
  5  6  1  0
  6  7  2  0
  6  8  1  0
  8  9  1  0
  9 10  1  0
 10 11  1  0
 11 12  2  0
 12 13  1  0
 13 14  2  0
 14 15  1  0
 15 16  2  0
  9 17  1  0
 17 18  1  0
 17 19  1  0
 19 20  1  0
 20 21  1  0
 21 22  1  0
 22 23  2  0
 23 24  1  0
 24 25  2  0
 25 26  1  0
 26 27  2  0
 20 28  1  0
 28 29  2  0
 28 30  1  0
 30 31  1  0
 31 32  1  0
 32 33  1  0
 33 34  2  0
 34 35  1  0
 35 36  2  0
 36 37  1  0
 37 38  2  0
 31 39  1  0
 39 40  2  0
 39 41  1  0
 41 42  1  0
 42 43  1  0
 43 44  1  0
 44 45  2  0
 45 46  1  0
 46 47  2  0
 47 48  1  0
 48 49  2  0
 42 50  1  0
 50 51  2  0
 50 52  1  0
  5 53  1  0
 53 54  1  0
 53 55  1  0
 53 56  1  0
 16 11  1  0
 27 22  1  0
 38 33  1  0
 49 44  1  0
M  END
>  <Title>  (165) 
idAAGIgen4

$$$$

     RDKit          2D

 56 59  0  0  0  0  0  0  0  0999 V2000
   -5.5022    3.6413    0.0000 C   0  0  0  0  0  0  0  0  0  0  0  0
   -4.4985    2.5266    0.0000 C   0  0  0  0  0  0  0  0  0  0  0  0
   -4.9620    1.1000    0.0000 C   0  0  0  0  0  0  0  0  0  0  0  0
   -3.9583   -0.0147    0.0000 C   0  0  0  0  0  0  0  0  0  0  0  0
   -4.4218   -1.4413    0.0000 O   0  0  0  0  0  0  0  0  0  0  0  0
   -3.4182   -2.5560    0.0000 C   0  0  0  0  0  0  0  0  0  0  0  0
   -1.9509   -2.2442    0.0000 O   0  0  0  0  0  0  0  0  0  0  0  0
   -3.8817   -3.9826    0.0000 C   0  0  0  0  0  0  0  0  0  0  0  0
   -5.3083   -4.4462    0.0000 C   0  0  0  0  0  0  0  0  0  0  0  0
   -5.3083   -5.9462    0.0000 C   0  0  0  0  0  0  0  0  0  0  0  0
   -3.8817   -6.4097    0.0000 C   0  0  0  0  0  0  0  0  0  0  0  0
   -3.0000   -5.1962    0.0000 C   0  0  0  0  0  0  0  0  0  0  0  0
   -1.5000   -5.1962    0.0000 C   0  0  0  0  0  0  0  0  0  0  0  0
   -0.7500   -6.4952    0.0000 O   0  0  0  0  0  0  0  0  0  0  0  0
   -0.7500   -3.8971    0.0000 N   0  0  0  0  0  0  0  0  0  0  0  0
    0.7500   -3.8971    0.0000 C   0  0  0  0  0  0  0  0  0  0  0  0
    1.5000   -2.5981    0.0000 C   0  0  0  0  0  0  0  0  0  0  0  0
    0.7500   -1.2990    0.0000 C   0  0  0  0  0  0  0  0  0  0  0  0
    1.5000    0.0000    0.0000 C   0  0  0  0  0  0  0  0  0  0  0  0
    0.7500    1.2990    0.0000 C   0  0  0  0  0  0  0  0  0  0  0  0
   -0.7500    1.2990    0.0000 C   0  0  0  0  0  0  0  0  0  0  0  0
   -1.5000    0.0000    0.0000 C   0  0  0  0  0  0  0  0  0  0  0  0
   -0.7500   -1.2990    0.0000 C   0  0  0  0  0  0  0  0  0  0  0  0
    1.5000   -5.1962    0.0000 C   0  0  0  0  0  0  0  0  0  0  0  0
    3.0000   -5.1962    0.0000 O   0  0  0  0  0  0  0  0  0  0  0  0
    0.7500   -6.4952    0.0000 N   0  0  0  0  0  0  0  0  0  0  0  0
    1.5000   -7.7942    0.0000 C   0  0  0  0  0  0  0  0  0  0  0  0
    0.7500   -9.0933    0.0000 C   0  0  0  0  0  0  0  0  0  0  0  0
    1.5000  -10.3923    0.0000 C   0  0  0  0  0  0  0  0  0  0  0  0
    0.7500  -11.6913    0.0000 C   0  0  0  0  0  0  0  0  0  0  0  0
    1.5000  -12.9904    0.0000 C   0  0  0  0  0  0  0  0  0  0  0  0
    3.0000  -12.9904    0.0000 C   0  0  0  0  0  0  0  0  0  0  0  0
    3.7500  -11.6913    0.0000 C   0  0  0  0  0  0  0  0  0  0  0  0
    3.0000  -10.3923    0.0000 C   0  0  0  0  0  0  0  0  0  0  0  0
    3.0000   -7.7942    0.0000 C   0  0  0  0  0  0  0  0  0  0  0  0
    3.7500   -6.4952    0.0000 O   0  0  0  0  0  0  0  0  0  0  0  0
    3.7500   -9.0933    0.0000 N   0  0  0  0  0  0  0  0  0  0  0  0
    5.2500   -9.0933    0.0000 C   0  0  0  0  0  0  0  0  0  0  0  0
    6.0000  -10.3923    0.0000 C   0  0  0  0  0  0  0  0  0  0  0  0
    7.5000  -10.3923    0.0000 C   0  0  0  0  0  0  0  0  0  0  0  0
    8.2500  -11.6913    0.0000 N   0  0  0  0  0  0  0  0  0  0  0  0
    8.2500   -9.0933    0.0000 O   0  0  0  0  0  0  0  0  0  0  0  0
    6.0000   -7.7942    0.0000 C   0  0  0  0  0  0  0  0  0  0  0  0
    5.2500   -6.4952    0.0000 O   0  0  0  0  0  0  0  0  0  0  0  0
    7.5000   -7.7942    0.0000 N   0  0  0  0  0  0  0  0  0  0  0  0
    8.2500   -6.4952    0.0000 C   0  0  0  0  0  0  0  0  0  0  0  0
    9.7500   -6.4952    0.0000 C   0  0  0  0  0  0  0  0  0  0  0  0
   10.5000   -5.1962    0.0000 C   0  0  0  0  0  0  0  0  0  0  0  0
   12.0000   -5.1962    0.0000 C   0  0  0  0  0  0  0  0  0  0  0  0
   12.7500   -3.8971    0.0000 C   0  0  0  0  0  0  0  0  0  0  0  0
   12.0000   -2.5981    0.0000 C   0  0  0  0  0  0  0  0  0  0  0  0
   10.5000   -2.5981    0.0000 C   0  0  0  0  0  0  0  0  0  0  0  0
    9.7500   -3.8971    0.0000 C   0  0  0  0  0  0  0  0  0  0  0  0
    7.5000   -5.1962    0.0000 C   0  0  0  0  0  0  0  0  0  0  0  0
    6.0000   -5.1962    0.0000 O   0  0  0  0  0  0  0  0  0  0  0  0
    8.2500   -3.8971    0.0000 O   0  0  0  0  0  0  0  0  0  0  0  0
  1  2  1  0
  2  3  1  0
  3  4  1  0
  4  5  1  0
  5  6  1  0
  6  7  2  0
  6  8  1  0
  8  9  1  0
  9 10  1  0
 10 11  1  0
 11 12  1  0
 12 13  1  0
 13 14  2  0
 13 15  1  0
 15 16  1  0
 16 17  1  0
 17 18  1  0
 18 19  2  0
 19 20  1  0
 20 21  2  0
 21 22  1  0
 22 23  2  0
 16 24  1  0
 24 25  2  0
 24 26  1  0
 26 27  1  0
 27 28  1  0
 28 29  1  0
 29 30  2  0
 30 31  1  0
 31 32  2  0
 32 33  1  0
 33 34  2  0
 27 35  1  0
 35 36  2  0
 35 37  1  0
 37 38  1  0
 38 39  1  0
 39 40  1  0
 40 41  1  0
 40 42  2  0
 38 43  1  0
 43 44  2  0
 43 45  1  0
 45 46  1  0
 46 47  1  0
 47 48  1  0
 48 49  2  0
 49 50  1  0
 50 51  2  0
 51 52  1  0
 52 53  2  0
 46 54  1  0
 54 55  2  0
 54 56  1  0
 12  8  1  0
 23 18  1  0
 34 29  1  0
 53 48  1  0
M  END
>  <Title>  (166) 
idAAGJgen4

$$$$

     RDKit          2D

 25 27  0  0  0  0  0  0  0  0999 V2000
    3.0000    0.0000    0.0000 C   0  0  0  0  0  0  0  0  0  0  0  0
    1.5000    0.0000    0.0000 C   0  0  0  0  0  0  0  0  0  0  0  0
    0.7500   -1.2990    0.0000 C   0  0  0  0  0  0  0  0  0  0  0  0
   -0.7500   -1.2990    0.0000 C   0  0  0  0  0  0  0  0  0  0  0  0
   -1.5000   -2.5981    0.0000 C   0  0  0  0  0  0  0  0  0  0  0  0
   -3.0000   -2.5981    0.0000 C   0  0  0  0  0  0  0  0  0  0  0  0
   -3.7500   -1.2990    0.0000 C   0  0  0  0  0  0  0  0  0  0  0  0
   -5.2500   -1.2990    0.0000 C   0  0  0  0  0  0  0  0  0  0  0  0
   -6.0000   -2.5981    0.0000 C   0  0  0  0  0  0  0  0  0  0  0  0
   -5.2500   -3.8971    0.0000 C   0  0  0  0  0  0  0  0  0  0  0  0
   -3.7500   -3.8971    0.0000 C   0  0  0  0  0  0  0  0  0  0  0  0
   -1.5000    0.0000    0.0000 C   0  0  0  0  0  0  0  0  0  0  0  0
   -0.7500    1.2990    0.0000 C   0  0  0  0  0  0  0  0  0  0  0  0
    0.7500    1.2990    0.0000 C   0  0  0  0  0  0  0  0  0  0  0  0
    1.5000    2.5981    0.0000 C   0  0  0  0  0  0  0  0  0  0  0  0
    0.7500    3.8971    0.0000 N   0  0  0  0  0  0  0  0  0  0  0  0
    1.5000    5.1962    0.0000 C   0  0  0  0  0  0  0  0  0  0  0  0
    3.0000    5.1962    0.0000 O   0  0  0  0  0  0  0  0  0  0  0  0
    0.7500    6.4952    0.0000 C   0  0  0  0  0  0  0  0  0  0  0  0
    1.5000    7.7942    0.0000 C   0  0  0  0  0  0  0  0  0  0  0  0
    3.0000    7.7942    0.0000 C   0  0  0  0  0  0  0  0  0  0  0  0
    3.7500    9.0933    0.0000 C   0  0  0  0  0  0  0  0  0  0  0  0
    3.0000   10.3923    0.0000 C   0  0  0  0  0  0  0  0  0  0  0  0
    1.5000   10.3923    0.0000 C   0  0  0  0  0  0  0  0  0  0  0  0
    0.7500    9.0933    0.0000 C   0  0  0  0  0  0  0  0  0  0  0  0
  1  2  1  0
  2  3  2  0
  3  4  1  0
  4  5  1  0
  5  6  1  0
  6  7  1  0
  7  8  1  0
  8  9  1  0
  9 10  1  0
 10 11  1  0
  4 12  2  0
 12 13  1  0
 13 14  2  0
 14 15  1  0
 15 16  1  0
 16 17  1  0
 17 18  2  0
 17 19  1  0
 19 20  1  0
 20 21  2  0
 21 22  1  0
 22 23  2  0
 23 24  1  0
 24 25  2  0
 14  2  1  0
 25 20  1  0
 11  6  1  0
M  END
>  <Title>  (167) 
idAAGKgen4

$$$$

     RDKit          2D

 45 48  0  0  0  0  0  0  0  0999 V2000
    6.0000   -5.1962    0.0000 C   0  0  0  0  0  0  0  0  0  0  0  0
    4.5000   -5.1962    0.0000 C   0  0  0  0  0  0  0  0  0  0  0  0
    3.7500   -6.4952    0.0000 C   0  0  0  0  0  0  0  0  0  0  0  0
    3.7500   -3.8971    0.0000 C   0  0  0  0  0  0  0  0  0  0  0  0
    2.2500   -3.8971    0.0000 N   0  0  0  0  0  0  0  0  0  0  0  0
    1.5000   -2.5981    0.0000 S   0  0  0  0  0  0  0  0  0  0  0  0
    0.2010   -3.3481    0.0000 O   0  0  0  0  0  0  0  0  0  0  0  0
    2.7990   -1.8481    0.0000 O   0  0  0  0  0  0  0  0  0  0  0  0
    0.7500   -1.2990    0.0000 C   0  0  0  0  0  0  0  0  0  0  0  0
    1.5000    0.0000    0.0000 C   0  0  0  0  0  0  0  0  0  0  0  0
    0.7500    1.2990    0.0000 C   0  0  0  0  0  0  0  0  0  0  0  0
   -0.7500    1.2990    0.0000 C   0  0  0  0  0  0  0  0  0  0  0  0
   -1.5000    2.5981    0.0000 C   0  0  0  0  0  0  0  0  0  0  0  0
   -0.7500    3.8971    0.0000 C   0  0  0  0  0  0  0  0  0  0  0  0
   -1.5000    5.1962    0.0000 C   0  0  0  0  0  0  0  0  0  0  0  0
   -3.0000    5.1962    0.0000 C   0  0  0  0  0  0  0  0  0  0  0  0
   -3.7500    3.8971    0.0000 C   0  0  0  0  0  0  0  0  0  0  0  0
   -3.0000    2.5981    0.0000 N   0  0  0  0  0  0  0  0  0  0  0  0
   -1.5000    0.0000    0.0000 C   0  0  0  0  0  0  0  0  0  0  0  0
   -0.7500   -1.2990    0.0000 C   0  0  0  0  0  0  0  0  0  0  0  0
    4.5000   -2.5981    0.0000 C   0  0  0  0  0  0  0  0  0  0  0  0
    3.7500   -1.2990    0.0000 O   0  0  0  0  0  0  0  0  0  0  0  0
    6.0000   -2.5981    0.0000 N   0  0  0  0  0  0  0  0  0  0  0  0
    6.7500   -1.2990    0.0000 C   0  0  0  0  0  0  0  0  0  0  0  0
    8.2500   -1.2990    0.0000 C   0  0  0  0  0  0  0  0  0  0  0  0
    9.0000   -0.0000    0.0000 C   0  0  0  0  0  0  0  0  0  0  0  0
   10.5000   -0.0000    0.0000 C   0  0  0  0  0  0  0  0  0  0  0  0
   11.2500    1.2990    0.0000 C   0  0  0  0  0  0  0  0  0  0  0  0
   10.5000    2.5981    0.0000 C   0  0  0  0  0  0  0  0  0  0  0  0
    9.0000    2.5981    0.0000 C   0  0  0  0  0  0  0  0  0  0  0  0
    8.2500    1.2990    0.0000 C   0  0  0  0  0  0  0  0  0  0  0  0
    6.0000   -0.0000    0.0000 C   0  0  0  0  0  0  0  0  0  0  0  0
    4.5000   -0.0000    0.0000 O   0  0  0  0  0  0  0  0  0  0  0  0
    6.7500    1.2990    0.0000 N   0  0  0  0  0  0  0  0  0  0  0  0
    6.0000    2.5981    0.0000 C   0  0  0  0  0  0  0  0  0  0  0  0
    6.7500    3.8971    0.0000 C   0  0  0  0  0  0  0  0  0  0  0  0
    6.0000    5.1962    0.0000 C   0  0  0  0  0  0  0  0  0  0  0  0
    6.7500    6.4952    0.0000 C   0  0  0  0  0  0  0  0  0  0  0  0
    6.0000    7.7942    0.0000 C   0  0  0  0  0  0  0  0  0  0  0  0
    4.5000    7.7942    0.0000 C   0  0  0  0  0  0  0  0  0  0  0  0
    3.7500    6.4952    0.0000 C   0  0  0  0  0  0  0  0  0  0  0  0
    4.5000    5.1962    0.0000 C   0  0  0  0  0  0  0  0  0  0  0  0
    4.5000    2.5981    0.0000 C   0  0  0  0  0  0  0  0  0  0  0  0
    3.7500    1.2990    0.0000 O   0  0  0  0  0  0  0  0  0  0  0  0
    3.7500    3.8971    0.0000 O   0  0  0  0  0  0  0  0  0  0  0  0
  1  2  1  0
  2  3  1  0
  2  4  1  0
  4  5  1  0
  5  6  1  0
  6  7  2  0
  6  8  2  0
  6  9  1  0
  9 10  2  0
 10 11  1  0
 11 12  2  0
 12 13  1  0
 13 14  2  0
 14 15  1  0
 15 16  2  0
 16 17  1  0
 17 18  2  0
 12 19  1  0
 19 20  2  0
  4 21  1  0
 21 22  2  0
 21 23  1  0
 23 24  1  0
 24 25  1  0
 25 26  1  0
 26 27  2  0
 27 28  1  0
 28 29  2  0
 29 30  1  0
 30 31  2  0
 24 32  1  0
 32 33  2  0
 32 34  1  0
 34 35  1  0
 35 36  1  0
 36 37  1  0
 37 38  2  0
 38 39  1  0
 39 40  2  0
 40 41  1  0
 41 42  2  0
 35 43  1  0
 43 44  2  0
 43 45  1  0
 20  9  1  0
 31 26  1  0
 42 37  1  0
 18 13  1  0
M  END
>  <Title>  (168) 
idAAGLgen4

$$$$

     RDKit          2D

 32 34  0  0  0  0  0  0  0  0999 V2000
    7.5000   -2.5981    0.0000 C   0  0  0  0  0  0  0  0  0  0  0  0
    6.0000   -2.5981    0.0000 C   0  0  0  0  0  0  0  0  0  0  0  0
    5.2500   -1.2990    0.0000 C   0  0  0  0  0  0  0  0  0  0  0  0
    3.7500   -1.2990    0.0000 C   0  0  0  0  0  0  0  0  0  0  0  0
    3.0000    0.0000    0.0000 O   0  0  0  0  0  0  0  0  0  0  0  0
    1.5000    0.0000    0.0000 C   0  0  0  0  0  0  0  0  0  0  0  0
    0.7500   -1.2990    0.0000 C   0  0  0  0  0  0  0  0  0  0  0  0
   -0.7500   -1.2990    0.0000 C   0  0  0  0  0  0  0  0  0  0  0  0
   -1.5000    0.0000    0.0000 C   0  0  0  0  0  0  0  0  0  0  0  0
   -0.7500    1.2990    0.0000 C   0  0  0  0  0  0  0  0  0  0  0  0
    0.7500    1.2990    0.0000 C   0  0  0  0  0  0  0  0  0  0  0  0
    1.5000    2.5981    0.0000 C   0  0  0  0  0  0  0  0  0  0  0  0
    3.0000    2.5981    0.0000 N   0  0  0  0  0  0  0  0  0  0  0  0
    3.7500    3.8971    0.0000 C   0  0  0  0  0  0  0  0  0  0  0  0
    3.0000    5.1962    0.0000 O   0  0  0  0  0  0  0  0  0  0  0  0
    5.2500    3.8971    0.0000 C   0  0  0  0  0  0  0  0  0  0  0  0
    6.0000    5.1962    0.0000 C   0  0  0  0  0  0  0  0  0  0  0  0
    7.5000    5.1962    0.0000 C   0  0  0  0  0  0  0  0  0  0  0  0
    8.2500    6.4952    0.0000 C   0  0  0  0  0  0  0  0  0  0  0  0
    7.5000    7.7942    0.0000 C   0  0  0  0  0  0  0  0  0  0  0  0
    8.2500    9.0933    0.0000 N   0  0  0  0  0  0  0  0  0  0  0  0
    9.7500    9.0933    0.0000 C   0  0  0  0  0  0  0  0  0  0  0  0
   10.5000    7.7942    0.0000 O   0  0  0  0  0  0  0  0  0  0  0  0
   10.5000   10.3923    0.0000 C   0  0  0  0  0  0  0  0  0  0  0  0
   12.0000   10.3923    0.0000 C   0  0  0  0  0  0  0  0  0  0  0  0
   12.7500   11.6913    0.0000 C   0  0  0  0  0  0  0  0  0  0  0  0
   12.0000   12.9904    0.0000 C   0  0  0  0  0  0  0  0  0  0  0  0
   10.5000   12.9904    0.0000 C   0  0  0  0  0  0  0  0  0  0  0  0
    9.7500   14.2894    0.0000 C   0  0  0  0  0  0  0  0  0  0  0  0
    9.7500   11.6913    0.0000 C   0  0  0  0  0  0  0  0  0  0  0  0
    6.0000    7.7942    0.0000 C   0  0  0  0  0  0  0  0  0  0  0  0
    5.2500    6.4952    0.0000 C   0  0  0  0  0  0  0  0  0  0  0  0
  1  2  1  0
  2  3  1  0
  3  4  1  0
  4  5  1  0
  5  6  1  0
  6  7  2  0
  7  8  1  0
  8  9  2  0
  9 10  1  0
 10 11  2  0
 11 12  1  0
 12 13  1  0
 13 14  1  0
 14 15  2  0
 14 16  1  0
 16 17  1  0
 17 18  2  0
 18 19  1  0
 19 20  2  0
 20 21  1  0
 21 22  1  0
 22 23  2  0
 22 24  1  0
 24 25  2  0
 25 26  1  0
 26 27  2  0
 27 28  1  0
 28 29  1  0
 28 30  2  0
 20 31  1  0
 31 32  2  0
 11  6  1  0
 32 17  1  0
 30 24  1  0
M  END
>  <Title>  (169) 
idAAGMgen4

$$$$

     RDKit          2D

 48 51  0  0  0  0  0  0  0  0999 V2000
   -5.3849    0.4488    0.0000 C   0  0  0  0  0  0  0  0  0  0  0  0
   -3.9583   -0.0147    0.0000 C   0  0  0  0  0  0  0  0  0  0  0  0
   -2.5317   -0.4783    0.0000 C   0  0  0  0  0  0  0  0  0  0  0  0
   -3.4948    1.4118    0.0000 C   0  0  0  0  0  0  0  0  0  0  0  0
   -4.4218   -1.4413    0.0000 N   0  0  0  0  0  0  0  0  0  0  0  0
   -3.4182   -2.5560    0.0000 C   0  0  0  0  0  0  0  0  0  0  0  0
   -1.9509   -2.2442    0.0000 O   0  0  0  0  0  0  0  0  0  0  0  0
   -3.8817   -3.9826    0.0000 C   0  0  0  0  0  0  0  0  0  0  0  0
   -5.3083   -4.4462    0.0000 C   0  0  0  0  0  0  0  0  0  0  0  0
   -5.3083   -5.9462    0.0000 C   0  0  0  0  0  0  0  0  0  0  0  0
   -3.8817   -6.4097    0.0000 C   0  0  0  0  0  0  0  0  0  0  0  0
   -3.0000   -5.1962    0.0000 C   0  0  0  0  0  0  0  0  0  0  0  0
   -1.5000   -5.1962    0.0000 C   0  0  0  0  0  0  0  0  0  0  0  0
   -0.7500   -6.4952    0.0000 O   0  0  0  0  0  0  0  0  0  0  0  0
   -0.7500   -3.8971    0.0000 N   0  0  0  0  0  0  0  0  0  0  0  0
    0.7500   -3.8971    0.0000 C   0  0  0  0  0  0  0  0  0  0  0  0
    1.5000   -2.5981    0.0000 C   0  0  0  0  0  0  0  0  0  0  0  0
    0.7500   -1.2990    0.0000 C   0  0  0  0  0  0  0  0  0  0  0  0
    1.5000    0.0000    0.0000 C   0  0  0  0  0  0  0  0  0  0  0  0
    0.7500    1.2990    0.0000 C   0  0  0  0  0  0  0  0  0  0  0  0
   -0.7500    1.2990    0.0000 C   0  0  0  0  0  0  0  0  0  0  0  0
   -1.5000    0.0000    0.0000 C   0  0  0  0  0  0  0  0  0  0  0  0
   -0.7500   -1.2990    0.0000 C   0  0  0  0  0  0  0  0  0  0  0  0
    1.5000   -5.1962    0.0000 C   0  0  0  0  0  0  0  0  0  0  0  0
    3.0000   -5.1962    0.0000 O   0  0  0  0  0  0  0  0  0  0  0  0
    0.7500   -6.4952    0.0000 N   0  0  0  0  0  0  0  0  0  0  0  0
    1.5000   -7.7942    0.0000 C   0  0  0  0  0  0  0  0  0  0  0  0
    0.7500   -9.0933    0.0000 C   0  0  0  0  0  0  0  0  0  0  0  0
    1.5000  -10.3923    0.0000 C   0  0  0  0  0  0  0  0  0  0  0  0
    0.7500  -11.6913    0.0000 C   0  0  0  0  0  0  0  0  0  0  0  0
    1.5000  -12.9904    0.0000 C   0  0  0  0  0  0  0  0  0  0  0  0
    3.0000  -12.9904    0.0000 C   0  0  0  0  0  0  0  0  0  0  0  0
    3.7500  -11.6913    0.0000 C   0  0  0  0  0  0  0  0  0  0  0  0
    3.0000  -10.3923    0.0000 C   0  0  0  0  0  0  0  0  0  0  0  0
    3.0000   -7.7942    0.0000 C   0  0  0  0  0  0  0  0  0  0  0  0
    3.7500   -6.4952    0.0000 O   0  0  0  0  0  0  0  0  0  0  0  0
    3.7500   -9.0933    0.0000 N   0  0  0  0  0  0  0  0  0  0  0  0
    5.2500   -9.0933    0.0000 C   0  0  0  0  0  0  0  0  0  0  0  0
    6.0000  -10.3923    0.0000 C   0  0  0  0  0  0  0  0  0  0  0  0
    7.5000  -10.3923    0.0000 C   0  0  0  0  0  0  0  0  0  0  0  0
    8.2500  -11.6913    0.0000 C   0  0  0  0  0  0  0  0  0  0  0  0
    9.7500  -11.6913    0.0000 C   0  0  0  0  0  0  0  0  0  0  0  0
   10.5000  -10.3923    0.0000 C   0  0  0  0  0  0  0  0  0  0  0  0
    9.7500   -9.0933    0.0000 C   0  0  0  0  0  0  0  0  0  0  0  0
    8.2500   -9.0933    0.0000 C   0  0  0  0  0  0  0  0  0  0  0  0
    6.0000   -7.7942    0.0000 C   0  0  0  0  0  0  0  0  0  0  0  0
    5.2500   -6.4952    0.0000 O   0  0  0  0  0  0  0  0  0  0  0  0
    7.5000   -7.7942    0.0000 O   0  0  0  0  0  0  0  0  0  0  0  0
  1  2  1  0
  2  3  1  0
  2  4  1  0
  2  5  1  0
  5  6  1  0
  6  7  2  0
  6  8  1  0
  8  9  1  0
  9 10  1  0
 10 11  1  0
 11 12  1  0
 12 13  1  0
 13 14  2  0
 13 15  1  0
 15 16  1  0
 16 17  1  0
 17 18  1  0
 18 19  2  0
 19 20  1  0
 20 21  2  0
 21 22  1  0
 22 23  2  0
 16 24  1  0
 24 25  2  0
 24 26  1  0
 26 27  1  0
 27 28  1  0
 28 29  1  0
 29 30  2  0
 30 31  1  0
 31 32  2  0
 32 33  1  0
 33 34  2  0
 27 35  1  0
 35 36  2  0
 35 37  1  0
 37 38  1  0
 38 39  1  0
 39 40  1  0
 40 41  2  0
 41 42  1  0
 42 43  2  0
 43 44  1  0
 44 45  2  0
 38 46  1  0
 46 47  2  0
 46 48  1  0
 12  8  1  0
 23 18  1  0
 34 29  1  0
 45 40  1  0
M  END
>  <Title>  (170) 
idAAGNgen4

$$$$

     RDKit          2D

 65 70  0  0  0  0  0  0  0  0999 V2000
    4.6351    7.7087    0.0000 C   0  0  0  0  0  0  0  0  0  0  0  0
    3.3360    8.4587    0.0000 C   0  0  0  0  0  0  0  0  0  0  0  0
    2.0370    9.2087    0.0000 C   0  0  0  0  0  0  0  0  0  0  0  0
    4.0860    9.7578    0.0000 C   0  0  0  0  0  0  0  0  0  0  0  0
    2.5860    7.1597    0.0000 C   0  0  0  0  0  0  0  0  0  0  0  0
    1.0860    7.1597    0.0000 C   0  0  0  0  0  0  0  0  0  0  0  0
    0.3360    8.4587    0.0000 N   0  0  0  0  0  0  0  0  0  0  0  0
   -1.1640    8.4587    0.0000 C   0  0  0  0  0  0  0  0  0  0  0  0
   -1.9140    7.1597    0.0000 O   0  0  0  0  0  0  0  0  0  0  0  0
   -1.9140    9.7578    0.0000 C   0  0  0  0  0  0  0  0  0  0  0  0
   -1.1640   11.0568    0.0000 C   0  0  0  0  0  0  0  0  0  0  0  0
    0.3360   11.0568    0.0000 C   0  0  0  0  0  0  0  0  0  0  0  0
    1.0860    9.7578    0.0000 C   0  0  0  0  0  0  0  0  0  0  0  0
    2.5860    9.7578    0.0000 C   0  0  0  0  0  0  0  0  0  0  0  0
    3.3360   11.0568    0.0000 C   0  0  0  0  0  0  0  0  0  0  0  0
    2.5860   12.3558    0.0000 C   0  0  0  0  0  0  0  0  0  0  0  0
    1.0860   12.3558    0.0000 C   0  0  0  0  0  0  0  0  0  0  0  0
   -3.4140    9.7578    0.0000 N   0  0  0  0  0  0  0  0  0  0  0  0
   -4.1640    8.4587    0.0000 C   0  0  0  0  0  0  0  0  0  0  0  0
   -3.4140    7.1597    0.0000 O   0  0  0  0  0  0  0  0  0  0  0  0
   -5.6640    8.4587    0.0000 C   0  0  0  0  0  0  0  0  0  0  0  0
   -6.4140    9.7578    0.0000 C   0  0  0  0  0  0  0  0  0  0  0  0
   -5.6640   11.0568    0.0000 C   0  0  0  0  0  0  0  0  0  0  0  0
   -4.1640   11.0568    0.0000 C   0  0  0  0  0  0  0  0  0  0  0  0
   -3.4140   12.3558    0.0000 C   0  0  0  0  0  0  0  0  0  0  0  0
   -4.1640   13.6549    0.0000 C   0  0  0  0  0  0  0  0  0  0  0  0
   -5.6640   13.6549    0.0000 C   0  0  0  0  0  0  0  0  0  0  0  0
   -6.4140   12.3558    0.0000 C   0  0  0  0  0  0  0  0  0  0  0  0
   -6.4140    7.1597    0.0000 N   0  0  0  0  0  0  0  0  0  0  0  0
   -5.6640    5.8606    0.0000 C   0  0  0  0  0  0  0  0  0  0  0  0
   -4.1640    5.8606    0.0000 O   0  0  0  0  0  0  0  0  0  0  0  0
   -6.4140    4.5616    0.0000 C   0  0  0  0  0  0  0  0  0  0  0  0
   -7.9140    4.5616    0.0000 C   0  0  0  0  0  0  0  0  0  0  0  0
   -8.6640    5.8606    0.0000 C   0  0  0  0  0  0  0  0  0  0  0  0
   -7.9140    7.1597    0.0000 C   0  0  0  0  0  0  0  0  0  0  0  0
   -8.6640    8.4587    0.0000 C   0  0  0  0  0  0  0  0  0  0  0  0
  -10.1640    8.4587    0.0000 C   0  0  0  0  0  0  0  0  0  0  0  0
  -10.9140    7.1597    0.0000 C   0  0  0  0  0  0  0  0  0  0  0  0
  -10.1640    5.8606    0.0000 C   0  0  0  0  0  0  0  0  0  0  0  0
   -5.6640    3.2626    0.0000 N   0  0  0  0  0  0  0  0  0  0  0  0
   -4.1640    3.2626    0.0000 C   0  0  0  0  0  0  0  0  0  0  0  0
   -3.4140    4.5616    0.0000 O   0  0  0  0  0  0  0  0  0  0  0  0
   -3.4140    1.9635    0.0000 O   0  0  0  0  0  0  0  0  0  0  0  0
   -1.9140    1.9635    0.0000 C   0  0  0  0  0  0  0  0  0  0  0  0
   -1.0323    3.1771    0.0000 C   0  0  0  0  0  0  0  0  0  0  0  0
    0.3943    2.7135    0.0000 O   0  0  0  0  0  0  0  0  0  0  0  0
    0.3943    1.2135    0.0000 C   0  0  0  0  0  0  0  0  0  0  0  0
    1.2760    0.0000    0.0000 O   0  0  0  0  0  0  0  0  0  0  0  0
    0.3943   -1.2135    0.0000 C   0  0  0  0  0  0  0  0  0  0  0  0
   -1.0323   -0.7500    0.0000 C   0  0  0  0  0  0  0  0  0  0  0  0
   -1.0323    0.7500    0.0000 C   0  0  0  0  0  0  0  0  0  0  0  0
    0.3360    5.8606    0.0000 C   0  0  0  0  0  0  0  0  0  0  0  0
   -1.1640    5.8606    0.0000 O   0  0  0  0  0  0  0  0  0  0  0  0
    1.0860    4.5616    0.0000 N   0  0  0  0  0  0  0  0  0  0  0  0
    2.5860    4.5616    0.0000 C   0  0  0  0  0  0  0  0  0  0  0  0
    3.3360    5.8606    0.0000 C   0  0  0  0  0  0  0  0  0  0  0  0
    4.8360    5.8606    0.0000 C   0  0  0  0  0  0  0  0  0  0  0  0
    5.5860    4.5616    0.0000 C   0  0  0  0  0  0  0  0  0  0  0  0
    7.0860    4.5616    0.0000 C   0  0  0  0  0  0  0  0  0  0  0  0
    7.8360    5.8606    0.0000 C   0  0  0  0  0  0  0  0  0  0  0  0
    7.0860    7.1597    0.0000 C   0  0  0  0  0  0  0  0  0  0  0  0
    5.5860    7.1597    0.0000 C   0  0  0  0  0  0  0  0  0  0  0  0
    3.3360    3.2626    0.0000 C   0  0  0  0  0  0  0  0  0  0  0  0
    4.8360    3.2626    0.0000 O   0  0  0  0  0  0  0  0  0  0  0  0
    2.5860    1.9635    0.0000 O   0  0  0  0  0  0  0  0  0  0  0  0
  1  2  1  0
  2  3  1  0
  2  4  1  0
  2  5  1  0
  5  6  1  0
  6  7  1  0
  7  8  1  0
  8  9  2  0
  8 10  1  0
 10 11  1  0
 11 12  1  0
 12 13  2  0
 13 14  1  0
 14 15  2  0
 15 16  1  0
 16 17  2  0
 10 18  1  0
 18 19  1  0
 19 20  2  0
 19 21  1  0
 21 22  1  0
 22 23  1  0
 23 24  2  0
 24 25  1  0
 25 26  2  0
 26 27  1  0
 27 28  2  0
 21 29  1  0
 29 30  1  0
 30 31  2  0
 30 32  1  0
 32 33  1  0
 33 34  1  0
 34 35  2  0
 35 36  1  0
 36 37  2  0
 37 38  1  0
 38 39  2  0
 32 40  1  0
 40 41  1  0
 41 42  2  0
 41 43  1  0
 43 44  1  0
 44 45  1  0
 45 46  1  0
 46 47  1  0
 47 48  1  0
 48 49  1  0
 49 50  1  0
 50 51  1  0
  6 52  1  0
 52 53  2  0
 52 54  1  0
 54 55  1  0
 55 56  1  0
 56 57  1  0
 57 58  2  0
 58 59  1  0
 59 60  2  0
 60 61  1  0
 61 62  2  0
 55 63  1  0
 63 64  2  0
 63 65  1  0
 17 12  1  0
 28 23  1  0
 39 34  1  0
 51 44  1  0
 62 57  1  0
 51 47  1  0
M  END
>  <Title>  (171) 
idAAGOgen4

$$$$

     RDKit          2D

 22 23  0  0  0  0  0  0  0  0999 V2000
    3.3960    0.8957    0.0000 C   0  0  0  0  0  0  0  0  0  0  0  0
    2.1929    0.0000    0.0000 C   0  0  0  0  0  0  0  0  0  0  0  0
    3.3960   -0.8957    0.0000 C   0  0  0  0  0  0  0  0  0  0  0  0
    1.6798    1.4095    0.0000 C   0  0  0  0  0  0  0  0  0  0  0  0
    0.3808    2.1595    0.0000 C   0  0  0  0  0  0  0  0  0  0  0  0
   -1.0964    1.8991    0.0000 C   0  0  0  0  0  0  0  0  0  0  0  0
   -2.0606    0.7500    0.0000 C   0  0  0  0  0  0  0  0  0  0  0  0
   -2.0606   -0.7500    0.0000 C   0  0  0  0  0  0  0  0  0  0  0  0
   -3.4701   -1.2630    0.0000 C   0  0  0  0  0  0  0  0  0  0  0  0
   -4.6192   -0.2988    0.0000 C   0  0  0  0  0  0  0  0  0  0  0  0
   -6.0288   -0.8119    0.0000 C   0  0  0  0  0  0  0  0  0  0  0  0
   -6.2892   -2.2891    0.0000 O   0  0  0  0  0  0  0  0  0  0  0  0
   -7.1778    0.1523    0.0000 N   0  0  0  0  0  0  0  0  0  0  0  0
   -8.5874   -0.3607    0.0000 C   0  0  0  0  0  0  0  0  0  0  0  0
   -9.7364    0.6035    0.0000 C   0  0  0  0  0  0  0  0  0  0  0  0
  -11.1460    0.0904    0.0000 C   0  0  0  0  0  0  0  0  0  0  0  0
  -11.4064   -1.3868    0.0000 C   0  0  0  0  0  0  0  0  0  0  0  0
  -10.2574   -2.3510    0.0000 C   0  0  0  0  0  0  0  0  0  0  0  0
   -8.8478   -1.8379    0.0000 C   0  0  0  0  0  0  0  0  0  0  0  0
   -1.0964   -1.8991    0.0000 O   0  0  0  0  0  0  0  0  0  0  0  0
    0.3808   -2.1595    0.0000 C   0  0  0  0  0  0  0  0  0  0  0  0
    1.6798   -1.4095    0.0000 C   0  0  0  0  0  0  0  0  0  0  0  0
  1  2  1  0
  2  3  1  0
  2  4  1  0
  4  5  1  0
  5  6  1  0
  6  7  1  0
  7  8  1  0
  8  9  1  0
  9 10  1  0
 10 11  1  0
 11 12  2  0
 11 13  1  0
 13 14  1  0
 14 15  1  0
 15 16  1  0
 16 17  1  0
 17 18  1  0
 18 19  1  0
  8 20  1  0
 20 21  1  0
 21 22  1  0
 22  2  1  0
 19 14  1  0
M  END
>  <Title>  (172) 
idAAGPgen4

$$$$

     RDKit          2D

 79 85  0  0  0  0  0  0  0  0999 V2000
   -1.5000   -5.1962    0.0000 C   0  0  0  0  0  0  0  0  0  0  0  0
   -0.7500   -3.8971    0.0000 N   0  0  0  0  0  0  0  0  0  0  0  0
    0.7500   -3.8971    0.0000 C   0  0  0  0  0  0  0  0  0  0  0  0
    1.5000   -2.5981    0.0000 C   0  0  0  0  0  0  0  0  0  0  0  0
    0.7500   -1.2990    0.0000 C   0  0  0  0  0  0  0  0  0  0  0  0
    1.5000    0.0000    0.0000 C   0  0  0  0  0  0  0  0  0  0  0  0
    0.7500    1.2990    0.0000 C   0  0  0  0  0  0  0  0  0  0  0  0
   -0.7500    1.2990    0.0000 C   0  0  0  0  0  0  0  0  0  0  0  0
   -1.5000    0.0000    0.0000 C   0  0  0  0  0  0  0  0  0  0  0  0
   -0.7500   -1.2990    0.0000 C   0  0  0  0  0  0  0  0  0  0  0  0
    1.5000   -5.1962    0.0000 C   0  0  0  0  0  0  0  0  0  0  0  0
    3.0000   -5.1962    0.0000 O   0  0  0  0  0  0  0  0  0  0  0  0
    0.7500   -6.4952    0.0000 N   0  0  0  0  0  0  0  0  0  0  0  0
    1.5000   -7.7942    0.0000 C   0  0  0  0  0  0  0  0  0  0  0  0
    0.7500   -9.0933    0.0000 C   0  0  0  0  0  0  0  0  0  0  0  0
    1.5000  -10.3923    0.0000 C   0  0  0  0  0  0  0  0  0  0  0  0
    0.7500  -11.6913    0.0000 C   0  0  0  0  0  0  0  0  0  0  0  0
    1.5000  -12.9904    0.0000 C   0  0  0  0  0  0  0  0  0  0  0  0
    3.0000  -12.9904    0.0000 C   0  0  0  0  0  0  0  0  0  0  0  0
    3.7500  -11.6913    0.0000 C   0  0  0  0  0  0  0  0  0  0  0  0
    3.0000  -10.3923    0.0000 C   0  0  0  0  0  0  0  0  0  0  0  0
    3.0000   -7.7942    0.0000 C   0  0  0  0  0  0  0  0  0  0  0  0
    3.7500   -6.4952    0.0000 O   0  0  0  0  0  0  0  0  0  0  0  0
    3.7500   -9.0933    0.0000 N   0  0  0  0  0  0  0  0  0  0  0  0
    5.2500   -9.0933    0.0000 C   0  0  0  0  0  0  0  0  0  0  0  0
    6.0000  -10.3923    0.0000 C   0  0  0  0  0  0  0  0  0  0  0  0
    7.5000  -10.3923    0.0000 C   0  0  0  0  0  0  0  0  0  0  0  0
    8.2500  -11.6913    0.0000 C   0  0  0  0  0  0  0  0  0  0  0  0
    9.7500  -11.6913    0.0000 C   0  0  0  0  0  0  0  0  0  0  0  0
   10.5000  -10.3923    0.0000 C   0  0  0  0  0  0  0  0  0  0  0  0
    9.7500   -9.0933    0.0000 C   0  0  0  0  0  0  0  0  0  0  0  0
    8.2500   -9.0933    0.0000 C   0  0  0  0  0  0  0  0  0  0  0  0
    6.0000   -7.7942    0.0000 C   0  0  0  0  0  0  0  0  0  0  0  0
    5.2500   -6.4952    0.0000 O   0  0  0  0  0  0  0  0  0  0  0  0
    7.5000   -7.7942    0.0000 N   0  0  0  0  0  0  0  0  0  0  0  0
    8.2500   -6.4952    0.0000 C   0  0  0  0  0  0  0  0  0  0  0  0
    9.7500   -6.4952    0.0000 C   0  0  0  0  0  0  0  0  0  0  0  0
   10.5000   -5.1962    0.0000 C   0  0  0  0  0  0  0  0  0  0  0  0
   12.0000   -5.1962    0.0000 C   0  0  0  0  0  0  0  0  0  0  0  0
   12.7500   -3.8971    0.0000 C   0  0  0  0  0  0  0  0  0  0  0  0
   12.0000   -2.5981    0.0000 C   0  0  0  0  0  0  0  0  0  0  0  0
   10.5000   -2.5981    0.0000 C   0  0  0  0  0  0  0  0  0  0  0  0
    9.7500   -3.8971    0.0000 C   0  0  0  0  0  0  0  0  0  0  0  0
    7.5000   -5.1962    0.0000 C   0  0  0  0  0  0  0  0  0  0  0  0
    6.0000   -5.1962    0.0000 O   0  0  0  0  0  0  0  0  0  0  0  0
    8.2500   -3.8971    0.0000 N   0  0  0  0  0  0  0  0  0  0  0  0
    7.5000   -2.5981    0.0000 C   0  0  0  0  0  0  0  0  0  0  0  0
    6.0000   -2.5981    0.0000 C   0  0  0  0  0  0  0  0  0  0  0  0
    5.2500   -1.2990    0.0000 C   0  0  0  0  0  0  0  0  0  0  0  0
    3.7500   -1.2990    0.0000 C   0  0  0  0  0  0  0  0  0  0  0  0
    3.0000   -0.0000    0.0000 C   0  0  0  0  0  0  0  0  0  0  0  0
    3.7500    1.2990    0.0000 C   0  0  0  0  0  0  0  0  0  0  0  0
    5.2500    1.2990    0.0000 C   0  0  0  0  0  0  0  0  0  0  0  0
    6.0000   -0.0000    0.0000 C   0  0  0  0  0  0  0  0  0  0  0  0
    8.2500   -1.2990    0.0000 C   0  0  0  0  0  0  0  0  0  0  0  0
    9.0235   -1.4919    0.0000 O   0  0  0  0  0  0  0  0  0  0  0  0
    7.5000   -0.0000    0.0000 N   0  0  0  0  0  0  0  0  0  0  0  0
    8.2500    1.2990    0.0000 C   0  0  0  0  0  0  0  0  0  0  0  0
    9.7500    1.2990    0.0000 C   0  0  0  0  0  0  0  0  0  0  0  0
   10.5000    0.0000    0.0000 C   0  0  0  0  0  0  0  0  0  0  0  0
    9.7500   -1.2990    0.0000 C   0  0  0  0  0  0  0  0  0  0  0  0
   10.5000   -2.5981    0.0000 C   0  0  0  0  0  0  0  0  0  0  0  0
   12.0000   -2.5981    0.0000 C   0  0  0  0  0  0  0  0  0  0  0  0
   12.7500   -1.2990    0.0000 C   0  0  0  0  0  0  0  0  0  0  0  0
   12.0000    0.0000    0.0000 C   0  0  0  0  0  0  0  0  0  0  0  0
    7.5000    2.5981    0.0000 C   0  0  0  0  0  0  0  0  0  0  0  0
    8.2500    3.8971    0.0000 O   0  0  0  0  0  0  0  0  0  0  0  0
    6.0000    2.5981    0.0000 N   0  0  0  0  0  0  0  0  0  0  0  0
    5.2500    3.8971    0.0000 C   0  0  0  0  0  0  0  0  0  0  0  0
    3.7500    3.8971    0.0000 C   0  0  0  0  0  0  0  0  0  0  0  0
    3.0000    5.1962    0.0000 C   0  0  0  0  0  0  0  0  0  0  0  0
    3.7500    6.4952    0.0000 C   0  0  0  0  0  0  0  0  0  0  0  0
    3.0000    7.7942    0.0000 C   0  0  0  0  0  0  0  0  0  0  0  0
    1.5000    7.7942    0.0000 C   0  0  0  0  0  0  0  0  0  0  0  0
    0.7500    6.4952    0.0000 C   0  0  0  0  0  0  0  0  0  0  0  0
    1.5000    5.1962    0.0000 C   0  0  0  0  0  0  0  0  0  0  0  0
    6.0000    5.1962    0.0000 C   0  0  0  0  0  0  0  0  0  0  0  0
    7.5000    5.1962    0.0000 O   0  0  0  0  0  0  0  0  0  0  0  0
    5.2500    6.4952    0.0000 O   0  0  0  0  0  0  0  0  0  0  0  0
  1  2  1  0
  2  3  1  0
  3  4  1  0
  4  5  1  0
  5  6  2  0
  6  7  1  0
  7  8  2  0
  8  9  1  0
  9 10  2  0
  3 11  1  0
 11 12  2  0
 11 13  1  0
 13 14  1  0
 14 15  1  0
 15 16  1  0
 16 17  2  0
 17 18  1  0
 18 19  2  0
 19 20  1  0
 20 21  2  0
 14 22  1  0
 22 23  2  0
 22 24  1  0
 24 25  1  0
 25 26  1  0
 26 27  1  0
 27 28  2  0
 28 29  1  0
 29 30  2  0
 30 31  1  0
 31 32  2  0
 25 33  1  0
 33 34  2  0
 33 35  1  0
 35 36  1  0
 36 37  1  0
 37 38  1  0
 38 39  2  0
 39 40  1  0
 40 41  2  0
 41 42  1  0
 42 43  2  0
 36 44  1  0
 44 45  2  0
 44 46  1  0
 46 47  1  0
 47 48  1  0
 48 49  1  0
 49 50  2  0
 50 51  1  0
 51 52  2  0
 52 53  1  0
 53 54  2  0
 47 55  1  0
 55 56  2  0
 55 57  1  0
 57 58  1  0
 58 59  1  0
 59 60  1  0
 60 61  2  0
 61 62  1  0
 62 63  2  0
 63 64  1  0
 64 65  2  0
 58 66  1  0
 66 67  2  0
 66 68  1  0
 68 69  1  0
 69 70  1  0
 70 71  1  0
 71 72  2  0
 72 73  1  0
 73 74  2  0
 74 75  1  0
 75 76  2  0
 69 77  1  0
 77 78  2  0
 77 79  1  0
 10  5  1  0
 21 16  1  0
 32 27  1  0
 43 38  1  0
 54 49  1  0
 65 60  1  0
 76 71  1  0
M  END
>  <Title>  (173) 
idAAGQgen4

$$$$

     RDKit          2D

 24 25  0  0  0  0  0  0  0  0999 V2000
   10.5000   -5.1962    0.0000 C   0  0  0  0  0  0  0  0  0  0  0  0
    9.7500   -3.8971    0.0000 C   0  0  0  0  0  0  0  0  0  0  0  0
    8.2500   -3.8971    0.0000 C   0  0  0  0  0  0  0  0  0  0  0  0
    7.5000   -5.1962    0.0000 O   0  0  0  0  0  0  0  0  0  0  0  0
    7.5000   -2.5981    0.0000 N   0  0  0  0  0  0  0  0  0  0  0  0
    6.0000   -2.5981    0.0000 C   0  0  0  0  0  0  0  0  0  0  0  0
    5.2500   -1.2990    0.0000 C   0  0  0  0  0  0  0  0  0  0  0  0
    3.7500   -1.2990    0.0000 N   0  0  0  0  0  0  0  0  0  0  0  0
    3.0000    0.0000    0.0000 C   0  0  0  0  0  0  0  0  0  0  0  0
    3.7500    1.2990    0.0000 O   0  0  0  0  0  0  0  0  0  0  0  0
    1.5000    0.0000    0.0000 C   0  0  0  0  0  0  0  0  0  0  0  0
    0.7500   -1.2990    0.0000 C   0  0  0  0  0  0  0  0  0  0  0  0
   -0.7500   -1.2990    0.0000 C   0  0  0  0  0  0  0  0  0  0  0  0
   -1.5000    0.0000    0.0000 C   0  0  0  0  0  0  0  0  0  0  0  0
   -3.0000    0.0000    0.0000 N   0  0  0  0  0  0  0  0  0  0  0  0
   -3.7500    1.2990    0.0000 C   0  0  0  0  0  0  0  0  0  0  0  0
   -5.2500    1.2990    0.0000 C   0  0  0  0  0  0  0  0  0  0  0  0
   -6.0000    2.5981    0.0000 C   0  0  0  0  0  0  0  0  0  0  0  0
   -7.5000    2.5981    0.0000 C   0  0  0  0  0  0  0  0  0  0  0  0
   -8.2500    1.2990    0.0000 C   0  0  0  0  0  0  0  0  0  0  0  0
   -7.5000    0.0000    0.0000 C   0  0  0  0  0  0  0  0  0  0  0  0
   -6.0000    0.0000    0.0000 C   0  0  0  0  0  0  0  0  0  0  0  0
   -0.7500    1.2990    0.0000 C   0  0  0  0  0  0  0  0  0  0  0  0
    0.7500    1.2990    0.0000 C   0  0  0  0  0  0  0  0  0  0  0  0
  1  2  1  0
  2  3  1  0
  3  4  2  0
  3  5  1  0
  5  6  1  0
  6  7  1  0
  7  8  1  0
  8  9  1  0
  9 10  2  0
  9 11  1  0
 11 12  2  0
 12 13  1  0
 13 14  2  0
 14 15  1  0
 15 16  1  0
 16 17  1  0
 17 18  2  0
 18 19  1  0
 19 20  2  0
 20 21  1  0
 21 22  2  0
 14 23  1  0
 23 24  2  0
 24 11  1  0
 22 17  1  0
M  END
>  <Title>  (174) 
idAAGRgen4

$$$$

     RDKit          2D

 29 31  0  0  0  0  0  0  0  0999 V2000
   -0.0628   -8.8633    0.0000 C   0  0  0  0  0  0  0  0  0  0  0  0
    0.1976   -7.3861    0.0000 C   0  0  0  0  0  0  0  0  0  0  0  0
   -0.9514   -6.4219    0.0000 C   0  0  0  0  0  0  0  0  0  0  0  0
    1.6072   -6.8730    0.0000 C   0  0  0  0  0  0  0  0  0  0  0  0
    1.8676   -5.3958    0.0000 C   0  0  0  0  0  0  0  0  0  0  0  0
    3.2772   -4.8828    0.0000 C   0  0  0  0  0  0  0  0  0  0  0  0
    4.4263   -5.8470    0.0000 C   0  0  0  0  0  0  0  0  0  0  0  0
    3.5377   -3.4056    0.0000 C   0  0  0  0  0  0  0  0  0  0  0  0
    2.3886   -2.4414    0.0000 C   0  0  0  0  0  0  0  0  0  0  0  0
    2.6491   -0.9642    0.0000 C   0  0  0  0  0  0  0  0  0  0  0  0
    1.5000    0.0000    0.0000 C   0  0  0  0  0  0  0  0  0  0  0  0
    2.6491    0.9642    0.0000 C   0  0  0  0  0  0  0  0  0  0  0  0
    0.7500   -1.2990    0.0000 C   0  0  0  0  0  0  0  0  0  0  0  0
   -0.7500   -1.2990    0.0000 C   0  0  0  0  0  0  0  0  0  0  0  0
   -1.5000    0.0000    0.0000 C   0  0  0  0  0  0  0  0  0  0  0  0
   -0.7500    1.2990    0.0000 C   0  0  0  0  0  0  0  0  0  0  0  0
   -2.2500    1.2990    0.0000 C   0  0  0  0  0  0  0  0  0  0  0  0
   -1.5000    2.5981    0.0000 C   0  0  0  0  0  0  0  0  0  0  0  0
   -3.0000    2.5981    0.0000 C   0  0  0  0  0  0  0  0  0  0  0  0
   -3.7500    3.8971    0.0000 C   0  0  0  0  0  0  0  0  0  0  0  0
   -5.2500    3.8971    0.0000 C   0  0  0  0  0  0  0  0  0  0  0  0
   -6.1317    2.6836    0.0000 C   0  0  0  0  0  0  0  0  0  0  0  0
   -7.5583    3.1471    0.0000 C   0  0  0  0  0  0  0  0  0  0  0  0
   -7.5583    4.6471    0.0000 C   0  0  0  0  0  0  0  0  0  0  0  0
   -6.1317    5.1106    0.0000 C   0  0  0  0  0  0  0  0  0  0  0  0
   -0.7500    3.8971    0.0000 C   0  0  0  0  0  0  0  0  0  0  0  0
    0.7500    3.8971    0.0000 C   0  0  0  0  0  0  0  0  0  0  0  0
    1.5000    2.5981    0.0000 C   0  0  0  0  0  0  0  0  0  0  0  0
    0.7500    1.2990    0.0000 C   0  0  0  0  0  0  0  0  0  0  0  0
  1  2  1  0
  2  3  1  0
  2  4  1  0
  4  5  1  0
  5  6  1  0
  6  7  1  0
  6  8  1  0
  8  9  1  0
  9 10  1  0
 10 11  1  0
 11 12  1  0
 11 13  1  0
 13 14  1  0
 14 15  1  0
 15 16  1  0
 16 17  1  0
 16 18  1  0
 18 19  1  0
 19 20  1  0
 20 21  1  0
 21 22  1  0
 22 23  1  0
 23 24  1  0
 24 25  1  0
 18 26  1  0
 26 27  1  0
 27 28  1  0
 28 29  1  0
 29 11  1  0
 29 16  1  0
 25 21  1  0
M  END
>  <Title>  (175) 
idAAGSgen4

$$$$

     RDKit          2D

 39 41  0  0  0  0  0  0  0  0999 V2000
    6.0000   -5.1962    0.0000 C   0  0  0  0  0  0  0  0  0  0  0  0
    4.5000   -5.1962    0.0000 C   0  0  0  0  0  0  0  0  0  0  0  0
    3.7500   -6.4952    0.0000 C   0  0  0  0  0  0  0  0  0  0  0  0
    3.7500   -3.8971    0.0000 C   0  0  0  0  0  0  0  0  0  0  0  0
    2.2500   -3.8971    0.0000 N   0  0  0  0  0  0  0  0  0  0  0  0
    1.5000   -2.5981    0.0000 S   0  0  0  0  0  0  0  0  0  0  0  0
    0.2010   -3.3481    0.0000 O   0  0  0  0  0  0  0  0  0  0  0  0
    2.7990   -1.8481    0.0000 O   0  0  0  0  0  0  0  0  0  0  0  0
    0.7500   -1.2990    0.0000 C   0  0  0  0  0  0  0  0  0  0  0  0
    1.5000    0.0000    0.0000 C   0  0  0  0  0  0  0  0  0  0  0  0
    0.7500    1.2990    0.0000 C   0  0  0  0  0  0  0  0  0  0  0  0
   -0.7500    1.2990    0.0000 C   0  0  0  0  0  0  0  0  0  0  0  0
   -1.5000    0.0000    0.0000 C   0  0  0  0  0  0  0  0  0  0  0  0
   -0.7500   -1.2990    0.0000 C   0  0  0  0  0  0  0  0  0  0  0  0
    4.5000   -2.5981    0.0000 C   0  0  0  0  0  0  0  0  0  0  0  0
    3.7500   -1.2990    0.0000 O   0  0  0  0  0  0  0  0  0  0  0  0
    6.0000   -2.5981    0.0000 N   0  0  0  0  0  0  0  0  0  0  0  0
    6.7500   -1.2990    0.0000 C   0  0  0  0  0  0  0  0  0  0  0  0
    8.2500   -1.2990    0.0000 C   0  0  0  0  0  0  0  0  0  0  0  0
    9.0000   -0.0000    0.0000 C   0  0  0  0  0  0  0  0  0  0  0  0
   10.5000   -0.0000    0.0000 C   0  0  0  0  0  0  0  0  0  0  0  0
   11.2500    1.2990    0.0000 C   0  0  0  0  0  0  0  0  0  0  0  0
   10.5000    2.5981    0.0000 C   0  0  0  0  0  0  0  0  0  0  0  0
    9.0000    2.5981    0.0000 C   0  0  0  0  0  0  0  0  0  0  0  0
    8.2500    1.2990    0.0000 C   0  0  0  0  0  0  0  0  0  0  0  0
    6.0000   -0.0000    0.0000 C   0  0  0  0  0  0  0  0  0  0  0  0
    4.5000   -0.0000    0.0000 O   0  0  0  0  0  0  0  0  0  0  0  0
    6.7500    1.2990    0.0000 N   0  0  0  0  0  0  0  0  0  0  0  0
    6.0000    2.5981    0.0000 C   0  0  0  0  0  0  0  0  0  0  0  0
    6.7500    3.8971    0.0000 C   0  0  0  0  0  0  0  0  0  0  0  0
    6.0000    5.1962    0.0000 C   0  0  0  0  0  0  0  0  0  0  0  0
    6.7500    6.4952    0.0000 C   0  0  0  0  0  0  0  0  0  0  0  0
    6.0000    7.7942    0.0000 C   0  0  0  0  0  0  0  0  0  0  0  0
    4.5000    7.7942    0.0000 C   0  0  0  0  0  0  0  0  0  0  0  0
    3.7500    6.4952    0.0000 C   0  0  0  0  0  0  0  0  0  0  0  0
    4.5000    5.1962    0.0000 C   0  0  0  0  0  0  0  0  0  0  0  0
    4.5000    2.5981    0.0000 C   0  0  0  0  0  0  0  0  0  0  0  0
    3.7500    1.2990    0.0000 O   0  0  0  0  0  0  0  0  0  0  0  0
    3.7500    3.8971    0.0000 O   0  0  0  0  0  0  0  0  0  0  0  0
  1  2  1  0
  2  3  1  0
  2  4  1  0
  4  5  1  0
  5  6  1  0
  6  7  2  0
  6  8  2  0
  6  9  1  0
  9 10  2  0
 10 11  1  0
 11 12  2  0
 12 13  1  0
 13 14  2  0
  4 15  1  0
 15 16  2  0
 15 17  1  0
 17 18  1  0
 18 19  1  0
 19 20  1  0
 20 21  2  0
 21 22  1  0
 22 23  2  0
 23 24  1  0
 24 25  2  0
 18 26  1  0
 26 27  2  0
 26 28  1  0
 28 29  1  0
 29 30  1  0
 30 31  1  0
 31 32  2  0
 32 33  1  0
 33 34  2  0
 34 35  1  0
 35 36  2  0
 29 37  1  0
 37 38  2  0
 37 39  1  0
 14  9  1  0
 25 20  1  0
 36 31  1  0
M  END
>  <Title>  (176) 
idAAGTgen4

$$$$

     RDKit          2D

 32 34  0  0  0  0  0  0  0  0999 V2000
    7.5000   -2.5981    0.0000 C   0  0  0  0  0  0  0  0  0  0  0  0
    6.0000   -2.5981    0.0000 C   0  0  0  0  0  0  0  0  0  0  0  0
    5.2500   -1.2990    0.0000 C   0  0  0  0  0  0  0  0  0  0  0  0
    3.7500   -1.2990    0.0000 C   0  0  0  0  0  0  0  0  0  0  0  0
    3.0000    0.0000    0.0000 O   0  0  0  0  0  0  0  0  0  0  0  0
    1.5000    0.0000    0.0000 C   0  0  0  0  0  0  0  0  0  0  0  0
    0.7500   -1.2990    0.0000 C   0  0  0  0  0  0  0  0  0  0  0  0
   -0.7500   -1.2990    0.0000 C   0  0  0  0  0  0  0  0  0  0  0  0
   -1.5000    0.0000    0.0000 C   0  0  0  0  0  0  0  0  0  0  0  0
   -0.7500    1.2990    0.0000 C   0  0  0  0  0  0  0  0  0  0  0  0
    0.7500    1.2990    0.0000 C   0  0  0  0  0  0  0  0  0  0  0  0
    1.5000    2.5981    0.0000 C   0  0  0  0  0  0  0  0  0  0  0  0
    3.0000    2.5981    0.0000 N   0  0  0  0  0  0  0  0  0  0  0  0
    3.7500    3.8971    0.0000 C   0  0  0  0  0  0  0  0  0  0  0  0
    3.0000    5.1962    0.0000 O   0  0  0  0  0  0  0  0  0  0  0  0
    5.2500    3.8971    0.0000 C   0  0  0  0  0  0  0  0  0  0  0  0
    6.0000    2.5981    0.0000 C   0  0  0  0  0  0  0  0  0  0  0  0
    7.5000    2.5981    0.0000 C   0  0  0  0  0  0  0  0  0  0  0  0
    8.2500    3.8971    0.0000 C   0  0  0  0  0  0  0  0  0  0  0  0
    7.5000    5.1962    0.0000 C   0  0  0  0  0  0  0  0  0  0  0  0
    8.2500    6.4952    0.0000 S   0  0  0  0  0  0  0  0  0  0  0  0
    9.5490    5.7452    0.0000 O   0  0  0  0  0  0  0  0  0  0  0  0
    6.9510    7.2452    0.0000 O   0  0  0  0  0  0  0  0  0  0  0  0
    9.0000    7.7942    0.0000 N   0  0  0  0  0  0  0  0  0  0  0  0
    8.2500    9.0933    0.0000 C   0  0  0  0  0  0  0  0  0  0  0  0
    9.0000   10.3923    0.0000 C   0  0  0  0  0  0  0  0  0  0  0  0
   10.5000   10.3923    0.0000 C   0  0  0  0  0  0  0  0  0  0  0  0
   11.2500   11.6913    0.0000 C   0  0  0  0  0  0  0  0  0  0  0  0
   10.5000   12.9904    0.0000 C   0  0  0  0  0  0  0  0  0  0  0  0
    9.0000   12.9904    0.0000 C   0  0  0  0  0  0  0  0  0  0  0  0
    8.2500   11.6913    0.0000 C   0  0  0  0  0  0  0  0  0  0  0  0
    6.0000    5.1962    0.0000 C   0  0  0  0  0  0  0  0  0  0  0  0
  1  2  1  0
  2  3  1  0
  3  4  1  0
  4  5  1  0
  5  6  1  0
  6  7  2  0
  7  8  1  0
  8  9  2  0
  9 10  1  0
 10 11  2  0
 11 12  1  0
 12 13  1  0
 13 14  1  0
 14 15  2  0
 14 16  1  0
 16 17  2  0
 17 18  1  0
 18 19  2  0
 19 20  1  0
 20 21  1  0
 21 22  2  0
 21 23  2  0
 21 24  1  0
 24 25  1  0
 25 26  1  0
 26 27  2  0
 27 28  1  0
 28 29  2  0
 29 30  1  0
 30 31  2  0
 20 32  2  0
 11  6  1  0
 32 16  1  0
 31 26  1  0
M  END
>  <Title>  (177) 
idAAGUgen4

$$$$

     RDKit          2D

 68 73  0  0  0  0  0  0  0  0999 V2000
    4.8509    0.8388    0.0000 C   0  0  0  0  0  0  0  0  0  0  0  0
    3.6073    0.0000    0.0000 C   0  0  0  0  0  0  0  0  0  0  0  0
    4.8509   -0.8388    0.0000 C   0  0  0  0  0  0  0  0  0  0  0  0
    3.2954    1.4672    0.0000 C   0  0  0  0  0  0  0  0  0  0  0  0
    2.4138    2.6807    0.0000 C   0  0  0  0  0  0  0  0  0  0  0  0
    1.1147    3.4307    0.0000 C   0  0  0  0  0  0  0  0  0  0  0  0
   -0.3771    3.5875    0.0000 C   0  0  0  0  0  0  0  0  0  0  0  0
   -1.8037    3.1240    0.0000 C   0  0  0  0  0  0  0  0  0  0  0  0
   -2.9184    2.1203    0.0000 C   0  0  0  0  0  0  0  0  0  0  0  0
   -3.5285    0.7500    0.0000 C   0  0  0  0  0  0  0  0  0  0  0  0
   -3.5285   -0.7500    0.0000 C   0  0  0  0  0  0  0  0  0  0  0  0
   -2.9184   -2.1203    0.0000 C   0  0  0  0  0  0  0  0  0  0  0  0
   -1.8037   -3.1240    0.0000 C   0  0  0  0  0  0  0  0  0  0  0  0
   -0.3771   -3.5875    0.0000 C   0  0  0  0  0  0  0  0  0  0  0  0
    1.1147   -3.4307    0.0000 C   0  0  0  0  0  0  0  0  0  0  0  0
    2.4138   -2.6807    0.0000 C   0  0  0  0  0  0  0  0  0  0  0  0
    3.2954   -1.4672    0.0000 C   0  0  0  0  0  0  0  0  0  0  0  0
    4.6658   -2.0773    0.0000 C   0  0  0  0  0  0  0  0  0  0  0  0
    4.8225   -3.5691    0.0000 C   0  0  0  0  0  0  0  0  0  0  0  0
    6.1929   -4.1792    0.0000 C   0  0  0  0  0  0  0  0  0  0  0  0
    6.3497   -5.6710    0.0000 C   0  0  0  0  0  0  0  0  0  0  0  0
    7.7200   -6.2811    0.0000 C   0  0  0  0  0  0  0  0  0  0  0  0
    8.9335   -5.3994    0.0000 C   0  0  0  0  0  0  0  0  0  0  0  0
    8.7767   -3.9076    0.0000 C   0  0  0  0  0  0  0  0  0  0  0  0
    7.4064   -3.2975    0.0000 C   0  0  0  0  0  0  0  0  0  0  0  0
    7.2496   -1.8058    0.0000 C   0  0  0  0  0  0  0  0  0  0  0  0
    8.4631   -0.9241    0.0000 C   0  0  0  0  0  0  0  0  0  0  0  0
    8.3063    0.5677    0.0000 C   0  0  0  0  0  0  0  0  0  0  0  0
    7.0073    1.3177    0.0000 C   0  0  0  0  0  0  0  0  0  0  0  0
    7.3192    2.7849    0.0000 C   0  0  0  0  0  0  0  0  0  0  0  0
    8.8109    2.9417    0.0000 C   0  0  0  0  0  0  0  0  0  0  0  0
    9.4210    1.5714    0.0000 C   0  0  0  0  0  0  0  0  0  0  0  0
   10.8883    1.2595    0.0000 C   0  0  0  0  0  0  0  0  0  0  0  0
   11.3518   -0.1670    0.0000 O   0  0  0  0  0  0  0  0  0  0  0  0
   11.8920    2.3743    0.0000 N   0  0  0  0  0  0  0  0  0  0  0  0
   13.3592    2.0624    0.0000 C   0  0  0  0  0  0  0  0  0  0  0  0
   14.3629    3.1771    0.0000 C   0  0  0  0  0  0  0  0  0  0  0  0
   15.8301    2.8652    0.0000 C   0  0  0  0  0  0  0  0  0  0  0  0
   16.2936    1.4387    0.0000 C   0  0  0  0  0  0  0  0  0  0  0  0
   17.7608    1.1268    0.0000 C   0  0  0  0  0  0  0  0  0  0  0  0
   18.7645    2.2415    0.0000 C   0  0  0  0  0  0  0  0  0  0  0  0
   18.3010    3.6681    0.0000 C   0  0  0  0  0  0  0  0  0  0  0  0
   16.8338    3.9800    0.0000 C   0  0  0  0  0  0  0  0  0  0  0  0
   13.8227    0.6358    0.0000 C   0  0  0  0  0  0  0  0  0  0  0  0
   12.8190   -0.4789    0.0000 O   0  0  0  0  0  0  0  0  0  0  0  0
   15.2899    0.3239    0.0000 N   0  0  0  0  0  0  0  0  0  0  0  0
   15.7535   -1.1027    0.0000 C   0  0  0  0  0  0  0  0  0  0  0  0
   17.2207   -1.4145    0.0000 C   0  0  0  0  0  0  0  0  0  0  0  0
   17.6842   -2.8411    0.0000 C   0  0  0  0  0  0  0  0  0  0  0  0
   16.6805   -3.9558    0.0000 C   0  0  0  0  0  0  0  0  0  0  0  0
   17.1440   -5.3824    0.0000 C   0  0  0  0  0  0  0  0  0  0  0  0
   18.6113   -5.6943    0.0000 C   0  0  0  0  0  0  0  0  0  0  0  0
   19.6150   -4.5796    0.0000 C   0  0  0  0  0  0  0  0  0  0  0  0
   19.1514   -3.1530    0.0000 C   0  0  0  0  0  0  0  0  0  0  0  0
   14.7498   -2.2174    0.0000 C   0  0  0  0  0  0  0  0  0  0  0  0
   13.2825   -1.9055    0.0000 O   0  0  0  0  0  0  0  0  0  0  0  0
   15.2133   -3.6440    0.0000 N   0  0  0  0  0  0  0  0  0  0  0  0
   14.2096   -4.7587    0.0000 C   0  0  0  0  0  0  0  0  0  0  0  0
   14.6731   -6.1853    0.0000 C   0  0  0  0  0  0  0  0  0  0  0  0
   13.6694   -7.3000    0.0000 C   0  0  0  0  0  0  0  0  0  0  0  0
   12.2022   -6.9881    0.0000 C   0  0  0  0  0  0  0  0  0  0  0  0
   11.1985   -8.1028    0.0000 C   0  0  0  0  0  0  0  0  0  0  0  0
   11.6620   -9.5294    0.0000 C   0  0  0  0  0  0  0  0  0  0  0  0
   13.1292   -9.8413    0.0000 C   0  0  0  0  0  0  0  0  0  0  0  0
   14.1329   -8.7266    0.0000 C   0  0  0  0  0  0  0  0  0  0  0  0
   12.7424   -4.4468    0.0000 C   0  0  0  0  0  0  0  0  0  0  0  0
   12.2788   -3.0202    0.0000 O   0  0  0  0  0  0  0  0  0  0  0  0
   11.7387   -5.5615    0.0000 O   0  0  0  0  0  0  0  0  0  0  0  0
  1  2  1  0
  2  3  1  0
  2  4  1  0
  4  5  1  0
  5  6  1  0
  6  7  1  0
  7  8  1  0
  8  9  1  0
  9 10  1  0
 10 11  1  0
 11 12  1  0
 12 13  1  0
 13 14  1  0
 14 15  1  0
 15 16  1  0
 16 17  1  0
 17 18  1  0
 18 19  1  0
 19 20  1  0
 20 21  1  0
 21 22  1  0
 22 23  1  0
 23 24  1  0
 24 25  1  0
 25 26  1  0
 26 27  1  0
 27 28  1  0
 28 29  1  0
 29 30  1  0
 30 31  1  0
 31 32  1  0
 32 33  1  0
 33 34  2  0
 33 35  1  0
 35 36  1  0
 36 37  1  0
 37 38  1  0
 38 39  2  0
 39 40  1  0
 40 41  2  0
 41 42  1  0
 42 43  2  0
 36 44  1  0
 44 45  2  0
 44 46  1  0
 46 47  1  0
 47 48  1  0
 48 49  1  0
 49 50  2  0
 50 51  1  0
 51 52  2  0
 52 53  1  0
 53 54  2  0
 47 55  1  0
 55 56  2  0
 55 57  1  0
 57 58  1  0
 58 59  1  0
 59 60  1  0
 60 61  2  0
 61 62  1  0
 62 63  2  0
 63 64  1  0
 64 65  2  0
 58 66  1  0
 66 67  2  0
 66 68  1  0
 17  2  1  0
 25 20  1  0
 32 28  1  0
 43 38  1  0
 54 49  1  0
 65 60  1  0
M  END
>  <Title>  (178) 
idAAGVgen4

$$$$

     RDKit          2D

 31 33  0  0  0  0  0  0  0  0999 V2000
    5.2500   -2.7990    0.0000 C   0  0  0  0  0  0  0  0  0  0  0  0
    5.2500   -1.2990    0.0000 C   0  0  0  0  0  0  0  0  0  0  0  0
    5.2500    0.2010    0.0000 C   0  0  0  0  0  0  0  0  0  0  0  0
    6.7500   -1.2990    0.0000 C   0  0  0  0  0  0  0  0  0  0  0  0
    3.7500   -1.2990    0.0000 O   0  0  0  0  0  0  0  0  0  0  0  0
    3.0000    0.0000    0.0000 C   0  0  0  0  0  0  0  0  0  0  0  0
    3.7500    1.2990    0.0000 O   0  0  0  0  0  0  0  0  0  0  0  0
    1.5000    0.0000    0.0000 N   0  0  0  0  0  0  0  0  0  0  0  0
    0.7500   -1.2990    0.0000 C   0  0  0  0  0  0  0  0  0  0  0  0
   -0.7500   -1.2990    0.0000 C   0  0  0  0  0  0  0  0  0  0  0  0
   -1.5000    0.0000    0.0000 C   0  0  0  0  0  0  0  0  0  0  0  0
   -3.0000    0.0000    0.0000 C   0  0  0  0  0  0  0  0  0  0  0  0
   -3.7500    1.2990    0.0000 N   0  0  0  0  0  0  0  0  0  0  0  0
   -5.2500    1.2990    0.0000 C   0  0  0  0  0  0  0  0  0  0  0  0
   -6.0000    0.0000    0.0000 O   0  0  0  0  0  0  0  0  0  0  0  0
   -6.0000    2.5981    0.0000 C   0  0  0  0  0  0  0  0  0  0  0  0
   -5.2500    3.8971    0.0000 C   0  0  0  0  0  0  0  0  0  0  0  0
   -6.0000    5.1962    0.0000 C   0  0  0  0  0  0  0  0  0  0  0  0
   -7.5000    5.1962    0.0000 C   0  0  0  0  0  0  0  0  0  0  0  0
   -8.2500    3.8971    0.0000 C   0  0  0  0  0  0  0  0  0  0  0  0
   -7.5000    2.5981    0.0000 C   0  0  0  0  0  0  0  0  0  0  0  0
   -8.2500    1.2990    0.0000 C   0  0  0  0  0  0  0  0  0  0  0  0
   -9.7500    1.2990    0.0000 C   0  0  0  0  0  0  0  0  0  0  0  0
  -10.5000    0.0000    0.0000 C   0  0  0  0  0  0  0  0  0  0  0  0
  -12.0000    0.0000    0.0000 C   0  0  0  0  0  0  0  0  0  0  0  0
  -12.7500   -1.2990    0.0000 C   0  0  0  0  0  0  0  0  0  0  0  0
  -12.0000   -2.5981    0.0000 C   0  0  0  0  0  0  0  0  0  0  0  0
  -10.5000   -2.5981    0.0000 C   0  0  0  0  0  0  0  0  0  0  0  0
   -9.7500   -1.2990    0.0000 C   0  0  0  0  0  0  0  0  0  0  0  0
   -0.7500    1.2990    0.0000 C   0  0  0  0  0  0  0  0  0  0  0  0
    0.7500    1.2990    0.0000 C   0  0  0  0  0  0  0  0  0  0  0  0
  1  2  1  0
  2  3  1  0
  2  4  1  0
  2  5  1  0
  5  6  1  0
  6  7  2  0
  6  8  1  0
  8  9  1  0
  9 10  1  0
 10 11  1  0
 11 12  1  0
 12 13  1  0
 13 14  1  0
 14 15  2  0
 14 16  1  0
 16 17  2  0
 17 18  1  0
 18 19  2  0
 19 20  1  0
 20 21  2  0
 21 22  1  0
 22 23  1  0
 23 24  1  0
 24 25  2  0
 25 26  1  0
 26 27  2  0
 27 28  1  0
 28 29  2  0
 11 30  1  0
 30 31  1  0
 31  8  1  0
 21 16  1  0
 29 24  1  0
M  END
>  <Title>  (179) 
idAAGWgen4

$$$$

     RDKit          2D

 48 52  0  0  0  0  0  0  0  0999 V2000
    4.7184   -8.6053    0.0000 O   0  0  0  0  0  0  0  0  0  0  0  0
    4.7184   -7.1053    0.0000 C   0  0  0  0  0  0  0  0  0  0  0  0
    6.1603   -6.6919    0.0000 O   0  0  0  0  0  0  0  0  0  0  0  0
    3.4194   -6.3553    0.0000 C   0  0  0  0  0  0  0  0  0  0  0  0
    2.1203   -7.1053    0.0000 C   0  0  0  0  0  0  0  0  0  0  0  0
    1.9635   -8.5971    0.0000 C   0  0  0  0  0  0  0  0  0  0  0  0
    0.4963   -8.9089    0.0000 C   0  0  0  0  0  0  0  0  0  0  0  0
   -0.2537   -7.6099    0.0000 C   0  0  0  0  0  0  0  0  0  0  0  0
    0.7500   -6.4952    0.0000 C   0  0  0  0  0  0  0  0  0  0  0  0
    1.5000   -5.1962    0.0000 C   0  0  0  0  0  0  0  0  0  0  0  0
    3.0000   -5.1962    0.0000 C   0  0  0  0  0  0  0  0  0  0  0  0
    3.7500   -6.4952    0.0000 C   0  0  0  0  0  0  0  0  0  0  0  0
    5.2500   -6.4952    0.0000 C   0  0  0  0  0  0  0  0  0  0  0  0
    6.0000   -7.7942    0.0000 C   0  0  0  0  0  0  0  0  0  0  0  0
    7.5000   -7.7942    0.0000 C   0  0  0  0  0  0  0  0  0  0  0  0
    8.2500   -6.4952    0.0000 C   0  0  0  0  0  0  0  0  0  0  0  0
    7.5000   -5.1962    0.0000 C   0  0  0  0  0  0  0  0  0  0  0  0
    6.0000   -5.1962    0.0000 C   0  0  0  0  0  0  0  0  0  0  0  0
    3.7500   -3.8971    0.0000 N   0  0  0  0  0  0  0  0  0  0  0  0
    3.0000   -2.5981    0.0000 C   0  0  0  0  0  0  0  0  0  0  0  0
    1.5000   -2.5981    0.0000 O   0  0  0  0  0  0  0  0  0  0  0  0
    3.7500   -1.2990    0.0000 C   0  0  0  0  0  0  0  0  0  0  0  0
    5.2500   -1.2990    0.0000 C   0  0  0  0  0  0  0  0  0  0  0  0
    6.0000   -0.0000    0.0000 C   0  0  0  0  0  0  0  0  0  0  0  0
    5.2500    1.2990    0.0000 C   0  0  0  0  0  0  0  0  0  0  0  0
    3.7500    1.2990    0.0000 C   0  0  0  0  0  0  0  0  0  0  0  0
    3.0000   -0.0000    0.0000 C   0  0  0  0  0  0  0  0  0  0  0  0
   -0.4635   -5.6135    0.0000 C   0  0  0  0  0  0  0  0  0  0  0  0
   -1.8338   -6.2236    0.0000 O   0  0  0  0  0  0  0  0  0  0  0  0
   -0.3067   -4.1217    0.0000 N   0  0  0  0  0  0  0  0  0  0  0  0
   -1.5203   -3.2401    0.0000 C   0  0  0  0  0  0  0  0  0  0  0  0
   -1.3635   -1.7483    0.0000 C   0  0  0  0  0  0  0  0  0  0  0  0
   -2.5770   -0.8666    0.0000 C   0  0  0  0  0  0  0  0  0  0  0  0
   -3.9473   -1.4767    0.0000 C   0  0  0  0  0  0  0  0  0  0  0  0
   -5.1608   -0.5950    0.0000 C   0  0  0  0  0  0  0  0  0  0  0  0
   -5.0040    0.8968    0.0000 C   0  0  0  0  0  0  0  0  0  0  0  0
   -3.6337    1.5069    0.0000 C   0  0  0  0  0  0  0  0  0  0  0  0
   -2.4202    0.6252    0.0000 C   0  0  0  0  0  0  0  0  0  0  0  0
   -2.8906   -3.8502    0.0000 C   0  0  0  0  0  0  0  0  0  0  0  0
   -3.0474   -5.3419    0.0000 O   0  0  0  0  0  0  0  0  0  0  0  0
   -4.1041   -2.9685    0.0000 N   0  0  0  0  0  0  0  0  0  0  0  0
   -5.4744   -3.5786    0.0000 C   0  0  0  0  0  0  0  0  0  0  0  0
   -6.6879   -2.6969    0.0000 C   0  0  0  0  0  0  0  0  0  0  0  0
   -8.0583   -3.3070    0.0000 C   0  0  0  0  0  0  0  0  0  0  0  0
   -9.2718   -2.4253    0.0000 C   0  0  0  0  0  0  0  0  0  0  0  0
   -9.1150   -0.9336    0.0000 C   0  0  0  0  0  0  0  0  0  0  0  0
   -7.7447   -0.3234    0.0000 C   0  0  0  0  0  0  0  0  0  0  0  0
   -6.5312   -1.2051    0.0000 C   0  0  0  0  0  0  0  0  0  0  0  0
  1  2  2  0
  2  3  1  0
  2  4  1  0
  4  5  1  0
  5  6  1  0
  6  7  1  0
  7  8  1  0
  8  9  1  0
  9 10  1  0
 10 11  1  0
 11 12  1  0
 12 13  1  0
 13 14  2  0
 14 15  1  0
 15 16  2  0
 16 17  1  0
 17 18  2  0
 11 19  1  0
 19 20  1  0
 20 21  2  0
 20 22  1  0
 22 23  2  0
 23 24  1  0
 24 25  2  0
 25 26  1  0
 26 27  2  0
  9 28  1  0
 28 29  2  0
 28 30  1  0
 30 31  1  0
 31 32  1  0
 32 33  1  0
 33 34  2  0
 34 35  1  0
 35 36  2  0
 36 37  1  0
 37 38  2  0
 31 39  1  0
 39 40  2  0
 39 41  1  0
 41 42  1  0
 42 43  1  0
 43 44  2  0
 44 45  1  0
 45 46  2  0
 46 47  1  0
 47 48  2  0
  9  5  1  0
 18 13  1  0
 27 22  1  0
 38 33  1  0
 48 43  1  0
M  END
>  <Title>  (180) 
idAAGXgen4

$$$$

     RDKit          2D

 30 32  0  0  0  0  0  0  0  0999 V2000
    7.5000   -2.5981    0.0000 C   0  0  0  0  0  0  0  0  0  0  0  0
    6.0000   -2.5981    0.0000 C   0  0  0  0  0  0  0  0  0  0  0  0
    5.2500   -1.2990    0.0000 C   0  0  0  0  0  0  0  0  0  0  0  0
    3.7500   -1.2990    0.0000 C   0  0  0  0  0  0  0  0  0  0  0  0
    3.0000    0.0000    0.0000 O   0  0  0  0  0  0  0  0  0  0  0  0
    1.5000    0.0000    0.0000 C   0  0  0  0  0  0  0  0  0  0  0  0
    0.7500   -1.2990    0.0000 C   0  0  0  0  0  0  0  0  0  0  0  0
   -0.7500   -1.2990    0.0000 C   0  0  0  0  0  0  0  0  0  0  0  0
   -1.5000    0.0000    0.0000 C   0  0  0  0  0  0  0  0  0  0  0  0
   -0.7500    1.2990    0.0000 C   0  0  0  0  0  0  0  0  0  0  0  0
    0.7500    1.2990    0.0000 C   0  0  0  0  0  0  0  0  0  0  0  0
    1.5000    2.5981    0.0000 C   0  0  0  0  0  0  0  0  0  0  0  0
    3.0000    2.5981    0.0000 N   0  0  0  0  0  0  0  0  0  0  0  0
    3.7500    3.8971    0.0000 C   0  0  0  0  0  0  0  0  0  0  0  0
    3.0000    5.1962    0.0000 O   0  0  0  0  0  0  0  0  0  0  0  0
    5.2500    3.8971    0.0000 C   0  0  0  0  0  0  0  0  0  0  0  0
    6.0000    5.1962    0.0000 C   0  0  0  0  0  0  0  0  0  0  0  0
    7.5000    5.1962    0.0000 C   0  0  0  0  0  0  0  0  0  0  0  0
    8.2500    6.4952    0.0000 C   0  0  0  0  0  0  0  0  0  0  0  0
    7.5000    7.7942    0.0000 C   0  0  0  0  0  0  0  0  0  0  0  0
    6.0000    7.7942    0.0000 C   0  0  0  0  0  0  0  0  0  0  0  0
    5.2500    9.0933    0.0000 O   0  0  0  0  0  0  0  0  0  0  0  0
    6.0000   10.3923    0.0000 C   0  0  0  0  0  0  0  0  0  0  0  0
    5.2500   11.6913    0.0000 C   0  0  0  0  0  0  0  0  0  0  0  0
    6.0000   12.9904    0.0000 C   0  0  0  0  0  0  0  0  0  0  0  0
    5.2500   14.2894    0.0000 C   0  0  0  0  0  0  0  0  0  0  0  0
    3.7500   14.2894    0.0000 C   0  0  0  0  0  0  0  0  0  0  0  0
    3.0000   12.9904    0.0000 C   0  0  0  0  0  0  0  0  0  0  0  0
    3.7500   11.6913    0.0000 C   0  0  0  0  0  0  0  0  0  0  0  0
    5.2500    6.4952    0.0000 C   0  0  0  0  0  0  0  0  0  0  0  0
  1  2  1  0
  2  3  1  0
  3  4  1  0
  4  5  1  0
  5  6  1  0
  6  7  2  0
  7  8  1  0
  8  9  2  0
  9 10  1  0
 10 11  2  0
 11 12  1  0
 12 13  1  0
 13 14  1  0
 14 15  2  0
 14 16  1  0
 16 17  1  0
 17 18  2  0
 18 19  1  0
 19 20  2  0
 20 21  1  0
 21 22  1  0
 22 23  1  0
 23 24  1  0
 24 25  2  0
 25 26  1  0
 26 27  2  0
 27 28  1  0
 28 29  2  0
 21 30  2  0
 11  6  1  0
 30 17  1  0
 29 24  1  0
M  END
>  <Title>  (181) 
idAAGYgen4

$$$$

     RDKit          2D

 73 79  0  0  0  0  0  0  0  0999 V2000
    0.3360    3.2626    0.0000 C   0  0  0  0  0  0  0  0  0  0  0  0
    1.0860    4.5616    0.0000 C   0  0  0  0  0  0  0  0  0  0  0  0
    2.5860    4.5616    0.0000 C   0  0  0  0  0  0  0  0  0  0  0  0
    0.3360    5.8606    0.0000 C   0  0  0  0  0  0  0  0  0  0  0  0
    1.0860    7.1597    0.0000 N   0  0  0  0  0  0  0  0  0  0  0  0
    0.3360    8.4587    0.0000 C   0  0  0  0  0  0  0  0  0  0  0  0
   -1.1640    8.4587    0.0000 C   0  0  0  0  0  0  0  0  0  0  0  0
   -1.9140    7.1597    0.0000 O   0  0  0  0  0  0  0  0  0  0  0  0
   -1.9140    9.7578    0.0000 C   0  0  0  0  0  0  0  0  0  0  0  0
   -1.1640   11.0568    0.0000 C   0  0  0  0  0  0  0  0  0  0  0  0
    0.3360   11.0568    0.0000 C   0  0  0  0  0  0  0  0  0  0  0  0
    1.0860    9.7578    0.0000 C   0  0  0  0  0  0  0  0  0  0  0  0
    2.5860    9.7578    0.0000 C   0  0  0  0  0  0  0  0  0  0  0  0
    3.3360   11.0568    0.0000 C   0  0  0  0  0  0  0  0  0  0  0  0
    2.5860   12.3558    0.0000 C   0  0  0  0  0  0  0  0  0  0  0  0
    1.0860   12.3558    0.0000 C   0  0  0  0  0  0  0  0  0  0  0  0
   -3.4140    9.7578    0.0000 N   0  0  0  0  0  0  0  0  0  0  0  0
   -4.1640    8.4587    0.0000 C   0  0  0  0  0  0  0  0  0  0  0  0
   -3.4140    7.1597    0.0000 O   0  0  0  0  0  0  0  0  0  0  0  0
   -5.6640    8.4587    0.0000 C   0  0  0  0  0  0  0  0  0  0  0  0
   -6.4140    9.7578    0.0000 C   0  0  0  0  0  0  0  0  0  0  0  0
   -5.6640   11.0568    0.0000 C   0  0  0  0  0  0  0  0  0  0  0  0
   -4.1640   11.0568    0.0000 C   0  0  0  0  0  0  0  0  0  0  0  0
   -3.4140   12.3558    0.0000 C   0  0  0  0  0  0  0  0  0  0  0  0
   -4.1640   13.6549    0.0000 C   0  0  0  0  0  0  0  0  0  0  0  0
   -5.6640   13.6549    0.0000 C   0  0  0  0  0  0  0  0  0  0  0  0
   -6.4140   12.3558    0.0000 C   0  0  0  0  0  0  0  0  0  0  0  0
   -6.4140    7.1597    0.0000 N   0  0  0  0  0  0  0  0  0  0  0  0
   -5.6640    5.8606    0.0000 C   0  0  0  0  0  0  0  0  0  0  0  0
   -4.1640    5.8606    0.0000 O   0  0  0  0  0  0  0  0  0  0  0  0
   -6.4140    4.5616    0.0000 C   0  0  0  0  0  0  0  0  0  0  0  0
   -7.9140    4.5616    0.0000 C   0  0  0  0  0  0  0  0  0  0  0  0
   -8.6640    5.8606    0.0000 C   0  0  0  0  0  0  0  0  0  0  0  0
   -7.9140    7.1597    0.0000 C   0  0  0  0  0  0  0  0  0  0  0  0
   -8.6640    8.4587    0.0000 C   0  0  0  0  0  0  0  0  0  0  0  0
  -10.1640    8.4587    0.0000 C   0  0  0  0  0  0  0  0  0  0  0  0
  -10.9140    7.1597    0.0000 C   0  0  0  0  0  0  0  0  0  0  0  0
  -10.1640    5.8606    0.0000 C   0  0  0  0  0  0  0  0  0  0  0  0
   -5.6640    3.2626    0.0000 N   0  0  0  0  0  0  0  0  0  0  0  0
   -4.1640    3.2626    0.0000 C   0  0  0  0  0  0  0  0  0  0  0  0
   -3.4140    4.5616    0.0000 O   0  0  0  0  0  0  0  0  0  0  0  0
   -3.4140    1.9635    0.0000 O   0  0  0  0  0  0  0  0  0  0  0  0
   -4.1640    0.6645    0.0000 C   0  0  0  0  0  0  0  0  0  0  0  0
   -5.6557    0.5077    0.0000 C   0  0  0  0  0  0  0  0  0  0  0  0
   -5.9676   -0.9595    0.0000 O   0  0  0  0  0  0  0  0  0  0  0  0
   -4.6686   -1.7095    0.0000 C   0  0  0  0  0  0  0  0  0  0  0  0
   -4.0585   -3.0798    0.0000 O   0  0  0  0  0  0  0  0  0  0  0  0
   -2.5667   -2.9231    0.0000 C   0  0  0  0  0  0  0  0  0  0  0  0
   -2.2548   -1.4558    0.0000 C   0  0  0  0  0  0  0  0  0  0  0  0
   -3.5539   -0.7058    0.0000 C   0  0  0  0  0  0  0  0  0  0  0  0
    2.5860    7.1597    0.0000 S   0  0  0  0  0  0  0  0  0  0  0  0
    2.5860    8.6597    0.0000 O   0  0  0  0  0  0  0  0  0  0  0  0
    2.5860    5.6597    0.0000 O   0  0  0  0  0  0  0  0  0  0  0  0
    4.0860    7.1597    0.0000 C   0  0  0  0  0  0  0  0  0  0  0  0
    4.8360    8.4587    0.0000 C   0  0  0  0  0  0  0  0  0  0  0  0
    6.3360    8.4587    0.0000 C   0  0  0  0  0  0  0  0  0  0  0  0
    7.0860    7.1597    0.0000 C   0  0  0  0  0  0  0  0  0  0  0  0
    8.5860    7.1597    0.0000 N   0  0  0  0  0  0  0  0  0  0  0  0
    9.3360    8.4587    0.0000 C   0  0  0  0  0  0  0  0  0  0  0  0
    8.5860    9.7578    0.0000 O   0  0  0  0  0  0  0  0  0  0  0  0
   10.8360    8.4587    0.0000 C   0  0  0  0  0  0  0  0  0  0  0  0
   11.5860    9.7578    0.0000 C   0  0  0  0  0  0  0  0  0  0  0  0
   13.0860    9.7578    0.0000 C   0  0  0  0  0  0  0  0  0  0  0  0
   13.8360   11.0568    0.0000 C   0  0  0  0  0  0  0  0  0  0  0  0
   15.3360   11.0568    0.0000 C   0  0  0  0  0  0  0  0  0  0  0  0
   16.0860    9.7578    0.0000 C   0  0  0  0  0  0  0  0  0  0  0  0
   15.3360    8.4587    0.0000 C   0  0  0  0  0  0  0  0  0  0  0  0
   13.8360    8.4587    0.0000 C   0  0  0  0  0  0  0  0  0  0  0  0
   11.5860    7.1597    0.0000 C   0  0  0  0  0  0  0  0  0  0  0  0
   10.8360    5.8606    0.0000 O   0  0  0  0  0  0  0  0  0  0  0  0
   13.0860    7.1597    0.0000 O   0  0  0  0  0  0  0  0  0  0  0  0
    6.3360    5.8606    0.0000 C   0  0  0  0  0  0  0  0  0  0  0  0
    4.8360    5.8606    0.0000 C   0  0  0  0  0  0  0  0  0  0  0  0
  1  2  1  0
  2  3  1  0
  2  4  1  0
  4  5  1  0
  5  6  1  0
  6  7  1  0
  7  8  1  0
  7  9  1  0
  9 10  1  0
 10 11  1  0
 11 12  2  0
 12 13  1  0
 13 14  2  0
 14 15  1  0
 15 16  2  0
  9 17  1  0
 17 18  1  0
 18 19  2  0
 18 20  1  0
 20 21  1  0
 21 22  1  0
 22 23  2  0
 23 24  1  0
 24 25  2  0
 25 26  1  0
 26 27  2  0
 20 28  1  0
 28 29  1  0
 29 30  2  0
 29 31  1  0
 31 32  1  0
 32 33  1  0
 33 34  2  0
 34 35  1  0
 35 36  2  0
 36 37  1  0
 37 38  2  0
 31 39  1  0
 39 40  1  0
 40 41  2  0
 40 42  1  0
 42 43  1  0
 43 44  1  0
 44 45  1  0
 45 46  1  0
 46 47  1  0
 47 48  1  0
 48 49  1  0
 49 50  1  0
  5 51  1  0
 51 52  2  0
 51 53  2  0
 51 54  1  0
 54 55  2  0
 55 56  1  0
 56 57  2  0
 57 58  1  0
 58 59  1  0
 59 60  2  0
 59 61  1  0
 61 62  1  0
 62 63  1  0
 63 64  2  0
 64 65  1  0
 65 66  2  0
 66 67  1  0
 67 68  2  0
 61 69  1  0
 69 70  2  0
 69 71  1  0
 57 72  1  0
 72 73  2  0
 16 11  1  0
 27 22  1  0
 38 33  1  0
 50 43  1  0
 73 54  1  0
 50 46  1  0
 68 63  1  0
M  END
>  <Title>  (182) 
idAAGZgen4

$$$$

     RDKit          2D

 73 78  0  0  0  0  0  0  0  0999 V2000
   13.5000   -2.5981    0.0000 C   0  0  0  0  0  0  0  0  0  0  0  0
   12.7500   -1.2990    0.0000 C   0  0  0  0  0  0  0  0  0  0  0  0
   11.2500   -1.2990    0.0000 C   0  0  0  0  0  0  0  0  0  0  0  0
   13.5000   -0.0000    0.0000 C   0  0  0  0  0  0  0  0  0  0  0  0
   12.7500    1.2990    0.0000 C   0  0  0  0  0  0  0  0  0  0  0  0
   13.5000    2.5981    0.0000 N   0  0  0  0  0  0  0  0  0  0  0  0
   12.7500    3.8971    0.0000 S   0  0  0  0  0  0  0  0  0  0  0  0
   14.0490    4.6471    0.0000 O   0  0  0  0  0  0  0  0  0  0  0  0
   11.4510    3.1471    0.0000 O   0  0  0  0  0  0  0  0  0  0  0  0
   12.0000    5.1962    0.0000 C   0  0  0  0  0  0  0  0  0  0  0  0
   10.5000    5.1962    0.0000 C   0  0  0  0  0  0  0  0  0  0  0  0
    9.7500    6.4952    0.0000 C   0  0  0  0  0  0  0  0  0  0  0  0
   10.5000    7.7942    0.0000 C   0  0  0  0  0  0  0  0  0  0  0  0
   12.0000    7.7942    0.0000 C   0  0  0  0  0  0  0  0  0  0  0  0
   12.7500    6.4952    0.0000 C   0  0  0  0  0  0  0  0  0  0  0  0
   11.2500    1.2990    0.0000 C   0  0  0  0  0  0  0  0  0  0  0  0
   10.5000    2.5981    0.0000 O   0  0  0  0  0  0  0  0  0  0  0  0
   10.5000   -0.0000    0.0000 N   0  0  0  0  0  0  0  0  0  0  0  0
    9.0000   -0.0000    0.0000 C   0  0  0  0  0  0  0  0  0  0  0  0
    8.2500   -1.2990    0.0000 C   0  0  0  0  0  0  0  0  0  0  0  0
    6.7500   -1.2990    0.0000 C   0  0  0  0  0  0  0  0  0  0  0  0
    6.0000   -2.5981    0.0000 C   0  0  0  0  0  0  0  0  0  0  0  0
    4.5000   -2.5981    0.0000 C   0  0  0  0  0  0  0  0  0  0  0  0
    3.7500   -1.2990    0.0000 C   0  0  0  0  0  0  0  0  0  0  0  0
    4.5000    0.0000    0.0000 C   0  0  0  0  0  0  0  0  0  0  0  0
    6.0000   -0.0000    0.0000 C   0  0  0  0  0  0  0  0  0  0  0  0
    8.2500    1.2990    0.0000 C   0  0  0  0  0  0  0  0  0  0  0  0
    9.0000    2.5981    0.0000 O   0  0  0  0  0  0  0  0  0  0  0  0
    6.7500    1.2990    0.0000 N   0  0  0  0  0  0  0  0  0  0  0  0
    6.0000    2.5981    0.0000 C   0  0  0  0  0  0  0  0  0  0  0  0
    6.7500    3.8971    0.0000 C   0  0  0  0  0  0  0  0  0  0  0  0
    6.0000    5.1962    0.0000 C   0  0  0  0  0  0  0  0  0  0  0  0
    6.7500    6.4952    0.0000 C   0  0  0  0  0  0  0  0  0  0  0  0
    6.0000    7.7942    0.0000 C   0  0  0  0  0  0  0  0  0  0  0  0
    4.5000    7.7942    0.0000 C   0  0  0  0  0  0  0  0  0  0  0  0
    3.7500    6.4952    0.0000 C   0  0  0  0  0  0  0  0  0  0  0  0
    4.5000    5.1962    0.0000 C   0  0  0  0  0  0  0  0  0  0  0  0
    4.5000    2.5981    0.0000 C   0  0  0  0  0  0  0  0  0  0  0  0
    3.7500    1.2990    0.0000 O   0  0  0  0  0  0  0  0  0  0  0  0
    3.7500    3.8971    0.0000 N   0  0  0  0  0  0  0  0  0  0  0  0
    2.2500    3.8971    0.0000 C   0  0  0  0  0  0  0  0  0  0  0  0
    1.5000    2.5981    0.0000 C   0  0  0  0  0  0  0  0  0  0  0  0
    0.0000    2.5981    0.0000 C   0  0  0  0  0  0  0  0  0  0  0  0
   -0.7500    1.2990    0.0000 C   0  0  0  0  0  0  0  0  0  0  0  0
   -2.2500    1.2990    0.0000 C   0  0  0  0  0  0  0  0  0  0  0  0
   -3.0000    2.5981    0.0000 C   0  0  0  0  0  0  0  0  0  0  0  0
   -2.2500    3.8971    0.0000 C   0  0  0  0  0  0  0  0  0  0  0  0
   -0.7500    3.8971    0.0000 C   0  0  0  0  0  0  0  0  0  0  0  0
    1.5000    5.1962    0.0000 C   0  0  0  0  0  0  0  0  0  0  0  0
    0.0000    5.1962    0.0000 O   0  0  0  0  0  0  0  0  0  0  0  0
    2.2500    6.4952    0.0000 N   0  0  0  0  0  0  0  0  0  0  0  0
    1.5000    7.7942    0.0000 C   0  0  0  0  0  0  0  0  0  0  0  0
    2.2500    9.0933    0.0000 C   0  0  0  0  0  0  0  0  0  0  0  0
    1.5000   10.3923    0.0000 C   0  0  0  0  0  0  0  0  0  0  0  0
    2.2500   11.6913    0.0000 C   0  0  0  0  0  0  0  0  0  0  0  0
    1.5000   12.9904    0.0000 C   0  0  0  0  0  0  0  0  0  0  0  0
    0.0000   12.9904    0.0000 C   0  0  0  0  0  0  0  0  0  0  0  0
   -0.7500   11.6913    0.0000 C   0  0  0  0  0  0  0  0  0  0  0  0
    0.0000   10.3923    0.0000 C   0  0  0  0  0  0  0  0  0  0  0  0
    0.0000    7.7942    0.0000 C   0  0  0  0  0  0  0  0  0  0  0  0
   -0.7500    6.4952    0.0000 O   0  0  0  0  0  0  0  0  0  0  0  0
   -0.7500    9.0933    0.0000 N   0  0  0  0  0  0  0  0  0  0  0  0
   -2.2500    9.0933    0.0000 C   0  0  0  0  0  0  0  0  0  0  0  0
   -3.0000   10.3923    0.0000 C   0  0  0  0  0  0  0  0  0  0  0  0
   -4.5000   10.3923    0.0000 C   0  0  0  0  0  0  0  0  0  0  0  0
   -5.2500   11.6913    0.0000 C   0  0  0  0  0  0  0  0  0  0  0  0
   -6.7500   11.6913    0.0000 C   0  0  0  0  0  0  0  0  0  0  0  0
   -7.5000   10.3923    0.0000 C   0  0  0  0  0  0  0  0  0  0  0  0
   -6.7500    9.0933    0.0000 C   0  0  0  0  0  0  0  0  0  0  0  0
   -5.2500    9.0933    0.0000 C   0  0  0  0  0  0  0  0  0  0  0  0
   -3.0000    7.7942    0.0000 C   0  0  0  0  0  0  0  0  0  0  0  0
   -2.2500    6.4952    0.0000 O   0  0  0  0  0  0  0  0  0  0  0  0
   -4.5000    7.7942    0.0000 O   0  0  0  0  0  0  0  0  0  0  0  0
  1  2  1  0
  2  3  1  0
  2  4  1  0
  4  5  1  0
  5  6  1  0
  6  7  1  0
  7  8  2  0
  7  9  2  0
  7 10  1  0
 10 11  2  0
 11 12  1  0
 12 13  2  0
 13 14  1  0
 14 15  2  0
  5 16  1  0
 16 17  2  0
 16 18  1  0
 18 19  1  0
 19 20  1  0
 20 21  1  0
 21 22  2  0
 22 23  1  0
 23 24  2  0
 24 25  1  0
 25 26  2  0
 19 27  1  0
 27 28  2  0
 27 29  1  0
 29 30  1  0
 30 31  1  0
 31 32  1  0
 32 33  2  0
 33 34  1  0
 34 35  2  0
 35 36  1  0
 36 37  2  0
 30 38  1  0
 38 39  2  0
 38 40  1  0
 40 41  1  0
 41 42  1  0
 42 43  1  0
 43 44  2  0
 44 45  1  0
 45 46  2  0
 46 47  1  0
 47 48  2  0
 41 49  1  0
 49 50  2  0
 49 51  1  0
 51 52  1  0
 52 53  1  0
 53 54  1  0
 54 55  2  0
 55 56  1  0
 56 57  2  0
 57 58  1  0
 58 59  2  0
 52 60  1  0
 60 61  2  0
 60 62  1  0
 62 63  1  0
 63 64  1  0
 64 65  1  0
 65 66  2  0
 66 67  1  0
 67 68  2  0
 68 69  1  0
 69 70  2  0
 63 71  1  0
 71 72  2  0
 71 73  1  0
 15 10  1  0
 26 21  1  0
 37 32  1  0
 48 43  1  0
 59 54  1  0
 70 65  1  0
M  END
>  <Title>  (183) 
idAAHAgen4

$$$$

     RDKit          2D

 62 66  0  0  0  0  0  0  0  0999 V2000
   13.5000   -2.5981    0.0000 C   0  0  0  0  0  0  0  0  0  0  0  0
   12.7500   -1.2990    0.0000 C   0  0  0  0  0  0  0  0  0  0  0  0
   11.2500   -1.2990    0.0000 C   0  0  0  0  0  0  0  0  0  0  0  0
   13.5000   -0.0000    0.0000 C   0  0  0  0  0  0  0  0  0  0  0  0
   12.7500    1.2990    0.0000 C   0  0  0  0  0  0  0  0  0  0  0  0
   13.5000    2.5981    0.0000 N   0  0  0  0  0  0  0  0  0  0  0  0
   12.7500    3.8971    0.0000 S   0  0  0  0  0  0  0  0  0  0  0  0
   14.0490    4.6471    0.0000 O   0  0  0  0  0  0  0  0  0  0  0  0
   11.4510    3.1471    0.0000 O   0  0  0  0  0  0  0  0  0  0  0  0
   12.0000    5.1962    0.0000 C   0  0  0  0  0  0  0  0  0  0  0  0
   10.5000    5.1962    0.0000 C   0  0  0  0  0  0  0  0  0  0  0  0
    9.7500    6.4952    0.0000 C   0  0  0  0  0  0  0  0  0  0  0  0
   10.5000    7.7942    0.0000 C   0  0  0  0  0  0  0  0  0  0  0  0
   12.0000    7.7942    0.0000 C   0  0  0  0  0  0  0  0  0  0  0  0
   12.7500    6.4952    0.0000 C   0  0  0  0  0  0  0  0  0  0  0  0
   11.2500    1.2990    0.0000 C   0  0  0  0  0  0  0  0  0  0  0  0
   10.5000    2.5981    0.0000 O   0  0  0  0  0  0  0  0  0  0  0  0
   10.5000   -0.0000    0.0000 N   0  0  0  0  0  0  0  0  0  0  0  0
    9.0000   -0.0000    0.0000 C   0  0  0  0  0  0  0  0  0  0  0  0
    8.2500   -1.2990    0.0000 C   0  0  0  0  0  0  0  0  0  0  0  0
    6.7500   -1.2990    0.0000 C   0  0  0  0  0  0  0  0  0  0  0  0
    6.0000   -2.5981    0.0000 C   0  0  0  0  0  0  0  0  0  0  0  0
    4.5000   -2.5981    0.0000 C   0  0  0  0  0  0  0  0  0  0  0  0
    3.7500   -1.2990    0.0000 C   0  0  0  0  0  0  0  0  0  0  0  0
    4.5000    0.0000    0.0000 C   0  0  0  0  0  0  0  0  0  0  0  0
    6.0000   -0.0000    0.0000 C   0  0  0  0  0  0  0  0  0  0  0  0
    8.2500    1.2990    0.0000 C   0  0  0  0  0  0  0  0  0  0  0  0
    9.0000    2.5981    0.0000 O   0  0  0  0  0  0  0  0  0  0  0  0
    6.7500    1.2990    0.0000 C   0  0  0  0  0  0  0  0  0  0  0  0
    6.0000    2.5981    0.0000 C   0  0  0  0  0  0  0  0  0  0  0  0
    6.7500    3.8971    0.0000 C   0  0  0  0  0  0  0  0  0  0  0  0
    6.0000    5.1962    0.0000 C   0  0  0  0  0  0  0  0  0  0  0  0
    6.7500    6.4952    0.0000 C   0  0  0  0  0  0  0  0  0  0  0  0
    6.0000    7.7942    0.0000 C   0  0  0  0  0  0  0  0  0  0  0  0
    4.5000    7.7942    0.0000 C   0  0  0  0  0  0  0  0  0  0  0  0
    3.7500    6.4952    0.0000 C   0  0  0  0  0  0  0  0  0  0  0  0
    4.5000    5.1962    0.0000 C   0  0  0  0  0  0  0  0  0  0  0  0
    4.5000    2.5981    0.0000 C   0  0  0  0  0  0  0  0  0  0  0  0
    3.7500    1.2990    0.0000 O   0  0  0  0  0  0  0  0  0  0  0  0
    3.7500    3.8971    0.0000 N   0  0  0  0  0  0  0  0  0  0  0  0
    2.2500    3.8971    0.0000 C   0  0  0  0  0  0  0  0  0  0  0  0
    1.5000    2.5981    0.0000 C   0  0  0  0  0  0  0  0  0  0  0  0
    0.0000    2.5981    0.0000 C   0  0  0  0  0  0  0  0  0  0  0  0
   -0.7500    3.8971    0.0000 C   0  0  0  0  0  0  0  0  0  0  0  0
   -2.2500    3.8971    0.0000 C   0  0  0  0  0  0  0  0  0  0  0  0
   -3.0000    2.5981    0.0000 C   0  0  0  0  0  0  0  0  0  0  0  0
   -2.2500    1.2990    0.0000 C   0  0  0  0  0  0  0  0  0  0  0  0
   -0.7500    1.2990    0.0000 C   0  0  0  0  0  0  0  0  0  0  0  0
    1.5000    5.1962    0.0000 C   0  0  0  0  0  0  0  0  0  0  0  0
    2.2500    6.4952    0.0000 O   0  0  0  0  0  0  0  0  0  0  0  0
    0.0000    5.1962    0.0000 N   0  0  0  0  0  0  0  0  0  0  0  0
   -0.7500    6.4952    0.0000 C   0  0  0  0  0  0  0  0  0  0  0  0
   -2.2500    6.4952    0.0000 C   0  0  0  0  0  0  0  0  0  0  0  0
   -3.0000    7.7942    0.0000 C   0  0  0  0  0  0  0  0  0  0  0  0
   -4.5000    7.7942    0.0000 C   0  0  0  0  0  0  0  0  0  0  0  0
   -5.2500    9.0933    0.0000 C   0  0  0  0  0  0  0  0  0  0  0  0
   -4.5000   10.3923    0.0000 C   0  0  0  0  0  0  0  0  0  0  0  0
   -3.0000   10.3923    0.0000 C   0  0  0  0  0  0  0  0  0  0  0  0
   -2.2500    9.0933    0.0000 C   0  0  0  0  0  0  0  0  0  0  0  0
    0.0000    7.7942    0.0000 C   0  0  0  0  0  0  0  0  0  0  0  0
    1.5000    7.7942    0.0000 O   0  0  0  0  0  0  0  0  0  0  0  0
   -0.7500    9.0933    0.0000 O   0  0  0  0  0  0  0  0  0  0  0  0
  1  2  1  0
  2  3  1  0
  2  4  1  0
  4  5  1  0
  5  6  1  0
  6  7  1  0
  7  8  2  0
  7  9  2  0
  7 10  1  0
 10 11  2  0
 11 12  1  0
 12 13  2  0
 13 14  1  0
 14 15  2  0
  5 16  1  0
 16 17  2  0
 16 18  1  0
 18 19  1  0
 19 20  1  0
 20 21  1  0
 21 22  2  0
 22 23  1  0
 23 24  2  0
 24 25  1  0
 25 26  2  0
 19 27  1  0
 27 28  1  0
 27 29  1  0
 29 30  1  0
 30 31  1  0
 31 32  1  0
 32 33  2  0
 33 34  1  0
 34 35  2  0
 35 36  1  0
 36 37  2  0
 30 38  1  0
 38 39  2  0
 38 40  1  0
 40 41  1  0
 41 42  1  0
 42 43  1  0
 43 44  2  0
 44 45  1  0
 45 46  2  0
 46 47  1  0
 47 48  2  0
 41 49  1  0
 49 50  2  0
 49 51  1  0
 51 52  1  0
 52 53  1  0
 53 54  1  0
 54 55  2  0
 55 56  1  0
 56 57  2  0
 57 58  1  0
 58 59  2  0
 52 60  1  0
 60 61  2  0
 60 62  1  0
 15 10  1  0
 26 21  1  0
 37 32  1  0
 48 43  1  0
 59 54  1  0
M  END
>  <Title>  (184) 
idAAHBgen4

$$$$

     RDKit          2D

 75 81  0  0  0  0  0  0  0  0999 V2000
    1.0860   12.3558    0.0000 C   0  0  0  0  0  0  0  0  0  0  0  0
    0.3360   11.0568    0.0000 C   0  0  0  0  0  0  0  0  0  0  0  0
    1.0860    9.7578    0.0000 C   0  0  0  0  0  0  0  0  0  0  0  0
   -1.1640   11.0568    0.0000 C   0  0  0  0  0  0  0  0  0  0  0  0
   -1.9140    9.7578    0.0000 N   0  0  0  0  0  0  0  0  0  0  0  0
   -3.4140    9.7578    0.0000 C   0  0  0  0  0  0  0  0  0  0  0  0
   -4.1640    8.4587    0.0000 C   0  0  0  0  0  0  0  0  0  0  0  0
   -3.4140    7.1597    0.0000 O   0  0  0  0  0  0  0  0  0  0  0  0
   -5.6640    8.4587    0.0000 C   0  0  0  0  0  0  0  0  0  0  0  0
   -6.4140    9.7578    0.0000 C   0  0  0  0  0  0  0  0  0  0  0  0
   -5.6640   11.0568    0.0000 C   0  0  0  0  0  0  0  0  0  0  0  0
   -4.1640   11.0568    0.0000 C   0  0  0  0  0  0  0  0  0  0  0  0
   -3.4140   12.3558    0.0000 C   0  0  0  0  0  0  0  0  0  0  0  0
   -4.1640   13.6549    0.0000 C   0  0  0  0  0  0  0  0  0  0  0  0
   -5.6640   13.6549    0.0000 C   0  0  0  0  0  0  0  0  0  0  0  0
   -6.4140   12.3558    0.0000 C   0  0  0  0  0  0  0  0  0  0  0  0
   -6.4140    7.1597    0.0000 N   0  0  0  0  0  0  0  0  0  0  0  0
   -5.6640    5.8606    0.0000 C   0  0  0  0  0  0  0  0  0  0  0  0
   -4.1640    5.8606    0.0000 O   0  0  0  0  0  0  0  0  0  0  0  0
   -6.4140    4.5616    0.0000 C   0  0  0  0  0  0  0  0  0  0  0  0
   -7.9140    4.5616    0.0000 C   0  0  0  0  0  0  0  0  0  0  0  0
   -8.6640    5.8606    0.0000 C   0  0  0  0  0  0  0  0  0  0  0  0
   -7.9140    7.1597    0.0000 C   0  0  0  0  0  0  0  0  0  0  0  0
   -8.6640    8.4587    0.0000 C   0  0  0  0  0  0  0  0  0  0  0  0
  -10.1640    8.4587    0.0000 C   0  0  0  0  0  0  0  0  0  0  0  0
  -10.9140    7.1597    0.0000 C   0  0  0  0  0  0  0  0  0  0  0  0
  -10.1640    5.8606    0.0000 C   0  0  0  0  0  0  0  0  0  0  0  0
   -5.6640    3.2626    0.0000 N   0  0  0  0  0  0  0  0  0  0  0  0
   -4.1640    3.2626    0.0000 C   0  0  0  0  0  0  0  0  0  0  0  0
   -3.4140    4.5616    0.0000 O   0  0  0  0  0  0  0  0  0  0  0  0
   -3.4140    1.9635    0.0000 O   0  0  0  0  0  0  0  0  0  0  0  0
   -1.9140    1.9635    0.0000 C   0  0  0  0  0  0  0  0  0  0  0  0
   -1.0323    3.1771    0.0000 C   0  0  0  0  0  0  0  0  0  0  0  0
    0.3943    2.7135    0.0000 O   0  0  0  0  0  0  0  0  0  0  0  0
    0.3943    1.2135    0.0000 C   0  0  0  0  0  0  0  0  0  0  0  0
    1.2760    0.0000    0.0000 O   0  0  0  0  0  0  0  0  0  0  0  0
    0.3943   -1.2135    0.0000 C   0  0  0  0  0  0  0  0  0  0  0  0
   -1.0323   -0.7500    0.0000 C   0  0  0  0  0  0  0  0  0  0  0  0
   -1.0323    0.7500    0.0000 C   0  0  0  0  0  0  0  0  0  0  0  0
   -1.1640    8.4587    0.0000 S   0  0  0  0  0  0  0  0  0  0  0  0
   -2.4630    7.7087    0.0000 O   0  0  0  0  0  0  0  0  0  0  0  0
    0.1351    9.2087    0.0000 O   0  0  0  0  0  0  0  0  0  0  0  0
   -0.4140    7.1597    0.0000 C   0  0  0  0  0  0  0  0  0  0  0  0
   -1.1640    5.8606    0.0000 C   0  0  0  0  0  0  0  0  0  0  0  0
   -0.4140    4.5616    0.0000 C   0  0  0  0  0  0  0  0  0  0  0  0
    1.0860    4.5616    0.0000 C   0  0  0  0  0  0  0  0  0  0  0  0
    1.8360    3.2626    0.0000 N   0  0  0  0  0  0  0  0  0  0  0  0
    3.3360    3.2626    0.0000 C   0  0  0  0  0  0  0  0  0  0  0  0
    4.0860    4.5616    0.0000 O   0  0  0  0  0  0  0  0  0  0  0  0
    4.0860    1.9635    0.0000 C   0  0  0  0  0  0  0  0  0  0  0  0
    3.3360    0.6645    0.0000 O   0  0  0  0  0  0  0  0  0  0  0  0
    5.5860    1.9635    0.0000 C   0  0  0  0  0  0  0  0  0  0  0  0
    6.3360    0.6645    0.0000 C   0  0  0  0  0  0  0  0  0  0  0  0
    7.8360    0.6645    0.0000 C   0  0  0  0  0  0  0  0  0  0  0  0
    8.5860   -0.6346    0.0000 C   0  0  0  0  0  0  0  0  0  0  0  0
   10.0860   -0.6346    0.0000 C   0  0  0  0  0  0  0  0  0  0  0  0
   10.8360    0.6645    0.0000 C   0  0  0  0  0  0  0  0  0  0  0  0
   10.0860    1.9635    0.0000 C   0  0  0  0  0  0  0  0  0  0  0  0
    8.5860    1.9635    0.0000 C   0  0  0  0  0  0  0  0  0  0  0  0
    6.3360    3.2626    0.0000 C   0  0  0  0  0  0  0  0  0  0  0  0
    5.5860    4.5616    0.0000 O   0  0  0  0  0  0  0  0  0  0  0  0
    7.8360    3.2626    0.0000 N   0  0  0  0  0  0  0  0  0  0  0  0
    8.5860    4.5616    0.0000 C   0  0  0  0  0  0  0  0  0  0  0  0
   10.0860    4.5616    0.0000 C   0  0  0  0  0  0  0  0  0  0  0  0
   10.8360    5.8606    0.0000 C   0  0  0  0  0  0  0  0  0  0  0  0
   12.3360    5.8606    0.0000 C   0  0  0  0  0  0  0  0  0  0  0  0
   13.0860    7.1597    0.0000 C   0  0  0  0  0  0  0  0  0  0  0  0
   12.3360    8.4587    0.0000 C   0  0  0  0  0  0  0  0  0  0  0  0
   10.8360    8.4587    0.0000 C   0  0  0  0  0  0  0  0  0  0  0  0
   10.0860    7.1597    0.0000 C   0  0  0  0  0  0  0  0  0  0  0  0
    7.8360    5.8606    0.0000 C   0  0  0  0  0  0  0  0  0  0  0  0
    6.3360    5.8606    0.0000 O   0  0  0  0  0  0  0  0  0  0  0  0
    8.5860    7.1597    0.0000 O   0  0  0  0  0  0  0  0  0  0  0  0
    1.8360    5.8606    0.0000 C   0  0  0  0  0  0  0  0  0  0  0  0
    1.0860    7.1597    0.0000 C   0  0  0  0  0  0  0  0  0  0  0  0
  1  2  1  0
  2  3  1  0
  2  4  1  0
  4  5  1  0
  5  6  1  0
  6  7  1  0
  7  8  1  0
  7  9  1  0
  9 10  1  0
 10 11  1  0
 11 12  2  0
 12 13  1  0
 13 14  2  0
 14 15  1  0
 15 16  2  0
  9 17  1  0
 17 18  1  0
 18 19  2  0
 18 20  1  0
 20 21  1  0
 21 22  1  0
 22 23  2  0
 23 24  1  0
 24 25  2  0
 25 26  1  0
 26 27  2  0
 20 28  1  0
 28 29  1  0
 29 30  2  0
 29 31  1  0
 31 32  1  0
 32 33  1  0
 33 34  1  0
 34 35  1  0
 35 36  1  0
 36 37  1  0
 37 38  1  0
 38 39  1  0
  5 40  1  0
 40 41  2  0
 40 42  2  0
 40 43  1  0
 43 44  2  0
 44 45  1  0
 45 46  2  0
 46 47  1  0
 47 48  1  0
 48 49  2  0
 48 50  1  0
 50 51  1  0
 50 52  1  0
 52 53  1  0
 53 54  1  0
 54 55  2  0
 55 56  1  0
 56 57  2  0
 57 58  1  0
 58 59  2  0
 52 60  1  0
 60 61  2  0
 60 62  1  0
 62 63  1  0
 63 64  1  0
 64 65  1  0
 65 66  2  0
 66 67  1  0
 67 68  2  0
 68 69  1  0
 69 70  2  0
 63 71  1  0
 71 72  2  0
 71 73  1  0
 46 74  1  0
 74 75  2  0
 16 11  1  0
 27 22  1  0
 39 32  1  0
 75 43  1  0
 39 35  1  0
 59 54  1  0
 70 65  1  0
M  END
>  <Title>  (185) 
idAAHCgen4

$$$$

     RDKit          2D

 67 72  0  0  0  0  0  0  0  0999 V2000
    6.7500   -6.4952    0.0000 C   0  0  0  0  0  0  0  0  0  0  0  0
    6.0000   -5.1962    0.0000 C   0  0  0  0  0  0  0  0  0  0  0  0
    6.7500   -3.8971    0.0000 C   0  0  0  0  0  0  0  0  0  0  0  0
    4.5000   -5.1962    0.0000 C   0  0  0  0  0  0  0  0  0  0  0  0
    3.7500   -3.8971    0.0000 C   0  0  0  0  0  0  0  0  0  0  0  0
    2.2500   -3.8971    0.0000 N   0  0  0  0  0  0  0  0  0  0  0  0
    1.5000   -2.5981    0.0000 S   0  0  0  0  0  0  0  0  0  0  0  0
    0.2010   -3.3481    0.0000 O   0  0  0  0  0  0  0  0  0  0  0  0
    2.7990   -1.8481    0.0000 O   0  0  0  0  0  0  0  0  0  0  0  0
    0.7500   -1.2990    0.0000 C   0  0  0  0  0  0  0  0  0  0  0  0
    1.5000    0.0000    0.0000 C   0  0  0  0  0  0  0  0  0  0  0  0
    0.7500    1.2990    0.0000 C   0  0  0  0  0  0  0  0  0  0  0  0
   -0.7500    1.2990    0.0000 C   0  0  0  0  0  0  0  0  0  0  0  0
   -1.5000   -0.0000    0.0000 C   0  0  0  0  0  0  0  0  0  0  0  0
   -0.7500   -1.2990    0.0000 C   0  0  0  0  0  0  0  0  0  0  0  0
    4.5000   -2.5981    0.0000 C   0  0  0  0  0  0  0  0  0  0  0  0
    3.7500   -1.2990    0.0000 O   0  0  0  0  0  0  0  0  0  0  0  0
    6.0000   -2.5981    0.0000 N   0  0  0  0  0  0  0  0  0  0  0  0
    6.7500   -1.2990    0.0000 C   0  0  0  0  0  0  0  0  0  0  0  0
    8.2500   -1.2990    0.0000 C   0  0  0  0  0  0  0  0  0  0  0  0
    9.0000   -2.5981    0.0000 C   0  0  0  0  0  0  0  0  0  0  0  0
   10.5000   -2.5981    0.0000 C   0  0  0  0  0  0  0  0  0  0  0  0
   11.2500   -3.8971    0.0000 C   0  0  0  0  0  0  0  0  0  0  0  0
   10.5000   -5.1962    0.0000 C   0  0  0  0  0  0  0  0  0  0  0  0
    9.0000   -5.1962    0.0000 C   0  0  0  0  0  0  0  0  0  0  0  0
    8.2500   -3.8971    0.0000 C   0  0  0  0  0  0  0  0  0  0  0  0
    6.0000   -0.0000    0.0000 C   0  0  0  0  0  0  0  0  0  0  0  0
    4.5000   -0.0000    0.0000 O   0  0  0  0  0  0  0  0  0  0  0  0
    6.7500    1.2990    0.0000 C   0  0  0  0  0  0  0  0  0  0  0  0
    6.0000    2.5981    0.0000 N   0  0  0  0  0  0  0  0  0  0  0  0
    6.7500    3.8971    0.0000 C   0  0  0  0  0  0  0  0  0  0  0  0
    8.2500    3.8971    0.0000 C   0  0  0  0  0  0  0  0  0  0  0  0
    9.0000    2.5981    0.0000 C   0  0  0  0  0  0  0  0  0  0  0  0
   10.5000    2.5981    0.0000 C   0  0  0  0  0  0  0  0  0  0  0  0
   11.2500    3.8971    0.0000 C   0  0  0  0  0  0  0  0  0  0  0  0
   10.5000    5.1962    0.0000 C   0  0  0  0  0  0  0  0  0  0  0  0
    9.0000    5.1962    0.0000 C   0  0  0  0  0  0  0  0  0  0  0  0
    4.5000    2.5981    0.0000 C   0  0  0  0  0  0  0  0  0  0  0  0
    3.7500    1.2990    0.0000 O   0  0  0  0  0  0  0  0  0  0  0  0
    3.7500    3.8971    0.0000 C   0  0  0  0  0  0  0  0  0  0  0  0
    4.5000    5.1962    0.0000 C   0  0  0  0  0  0  0  0  0  0  0  0
    3.7500    6.4952    0.0000 C   0  0  0  0  0  0  0  0  0  0  0  0
    2.2500    6.4952    0.0000 C   0  0  0  0  0  0  0  0  0  0  0  0
    1.5000    7.7942    0.0000 C   0  0  0  0  0  0  0  0  0  0  0  0
    2.2500    9.0933    0.0000 C   0  0  0  0  0  0  0  0  0  0  0  0
    3.7500    9.0933    0.0000 C   0  0  0  0  0  0  0  0  0  0  0  0
    4.5000    7.7942    0.0000 C   0  0  0  0  0  0  0  0  0  0  0  0
    2.2500    3.8971    0.0000 N   0  0  0  0  0  0  0  0  0  0  0  0
    1.5000    5.1962    0.0000 C   0  0  0  0  0  0  0  0  0  0  0  0
    1.7197    5.9624    0.0000 O   0  0  0  0  0  0  0  0  0  0  0  0
    0.0000    5.1962    0.0000 C   0  0  0  0  0  0  0  0  0  0  0  0
   -0.7500    6.4952    0.0000 C   0  0  0  0  0  0  0  0  0  0  0  0
   -2.2500    6.4952    0.0000 C   0  0  0  0  0  0  0  0  0  0  0  0
   -3.0000    5.1962    0.0000 C   0  0  0  0  0  0  0  0  0  0  0  0
   -4.5000    5.1962    0.0000 C   0  0  0  0  0  0  0  0  0  0  0  0
   -5.2500    6.4952    0.0000 C   0  0  0  0  0  0  0  0  0  0  0  0
   -4.5000    7.7942    0.0000 C   0  0  0  0  0  0  0  0  0  0  0  0
   -3.0000    7.7942    0.0000 C   0  0  0  0  0  0  0  0  0  0  0  0
   -0.7500    3.8971    0.0000 N   0  0  0  0  0  0  0  0  0  0  0  0
   -2.2500    3.8971    0.0000 C   0  0  0  0  0  0  0  0  0  0  0  0
   -3.2920    4.9761    0.0000 O   0  0  0  0  0  0  0  0  0  0  0  0
   -3.0000    2.5981    0.0000 C   0  0  0  0  0  0  0  0  0  0  0  0
   -2.2500    1.2990    0.0000 C   0  0  0  0  0  0  0  0  0  0  0  0
   -3.0000    0.0000    0.0000 C   0  0  0  0  0  0  0  0  0  0  0  0
   -4.5000    0.0000    0.0000 C   0  0  0  0  0  0  0  0  0  0  0  0
   -5.2500    1.2990    0.0000 C   0  0  0  0  0  0  0  0  0  0  0  0
   -4.5000    2.5981    0.0000 C   0  0  0  0  0  0  0  0  0  0  0  0
  1  2  1  0
  2  3  1  0
  2  4  1  0
  4  5  1  0
  5  6  1  0
  6  7  1  0
  7  8  2  0
  7  9  2  0
  7 10  1  0
 10 11  2  0
 11 12  1  0
 12 13  2  0
 13 14  1  0
 14 15  2  0
  5 16  1  0
 16 17  2  0
 16 18  1  0
 18 19  1  0
 19 20  1  0
 20 21  1  0
 21 22  2  0
 22 23  1  0
 23 24  2  0
 24 25  1  0
 25 26  2  0
 19 27  1  0
 27 28  1  0
 27 29  1  0
 29 30  1  0
 30 31  1  0
 31 32  1  0
 32 33  2  0
 33 34  1  0
 34 35  2  0
 35 36  1  0
 36 37  2  0
 30 38  1  0
 38 39  2  0
 38 40  1  0
 40 41  1  0
 41 42  1  0
 42 43  2  0
 43 44  1  0
 44 45  2  0
 45 46  1  0
 46 47  2  0
 40 48  1  0
 48 49  1  0
 49 50  2  0
 49 51  1  0
 51 52  1  0
 52 53  1  0
 53 54  2  0
 54 55  1  0
 55 56  2  0
 56 57  1  0
 57 58  2  0
 51 59  1  0
 59 60  1  0
 60 61  2  0
 60 62  1  0
 62 63  2  0
 63 64  1  0
 64 65  2  0
 65 66  1  0
 66 67  2  0
 15 10  1  0
 26 21  1  0
 37 32  1  0
 47 42  1  0
 58 53  1  0
 67 62  1  0
M  END
>  <Title>  (186) 
idAAHDgen4

$$$$

     RDKit          2D

 61 65  0  0  0  0  0  0  0  0999 V2000
   12.7500   -1.2990    0.0000 C   0  0  0  0  0  0  0  0  0  0  0  0
   13.5000   -0.0000    0.0000 C   0  0  0  0  0  0  0  0  0  0  0  0
   15.0000   -0.0000    0.0000 C   0  0  0  0  0  0  0  0  0  0  0  0
   12.7500    1.2990    0.0000 C   0  0  0  0  0  0  0  0  0  0  0  0
   13.5000    2.5981    0.0000 N   0  0  0  0  0  0  0  0  0  0  0  0
   12.7500    3.8971    0.0000 S   0  0  0  0  0  0  0  0  0  0  0  0
   14.0490    4.6471    0.0000 O   0  0  0  0  0  0  0  0  0  0  0  0
   11.4510    3.1471    0.0000 O   0  0  0  0  0  0  0  0  0  0  0  0
   12.0000    5.1962    0.0000 C   0  0  0  0  0  0  0  0  0  0  0  0
   10.5000    5.1962    0.0000 C   0  0  0  0  0  0  0  0  0  0  0  0
    9.7500    6.4952    0.0000 C   0  0  0  0  0  0  0  0  0  0  0  0
   10.5000    7.7942    0.0000 C   0  0  0  0  0  0  0  0  0  0  0  0
   12.0000    7.7942    0.0000 C   0  0  0  0  0  0  0  0  0  0  0  0
   12.7500    6.4952    0.0000 C   0  0  0  0  0  0  0  0  0  0  0  0
   11.2500    1.2990    0.0000 C   0  0  0  0  0  0  0  0  0  0  0  0
   10.5000    2.5981    0.0000 O   0  0  0  0  0  0  0  0  0  0  0  0
   10.5000   -0.0000    0.0000 N   0  0  0  0  0  0  0  0  0  0  0  0
    9.0000   -0.0000    0.0000 C   0  0  0  0  0  0  0  0  0  0  0  0
    8.2500   -1.2990    0.0000 C   0  0  0  0  0  0  0  0  0  0  0  0
    6.7500   -1.2990    0.0000 C   0  0  0  0  0  0  0  0  0  0  0  0
    6.0000   -2.5981    0.0000 C   0  0  0  0  0  0  0  0  0  0  0  0
    4.5000   -2.5981    0.0000 C   0  0  0  0  0  0  0  0  0  0  0  0
    3.7500   -1.2990    0.0000 C   0  0  0  0  0  0  0  0  0  0  0  0
    4.5000    0.0000    0.0000 C   0  0  0  0  0  0  0  0  0  0  0  0
    6.0000   -0.0000    0.0000 C   0  0  0  0  0  0  0  0  0  0  0  0
    8.2500    1.2990    0.0000 C   0  0  0  0  0  0  0  0  0  0  0  0
    9.0000    2.5981    0.0000 O   0  0  0  0  0  0  0  0  0  0  0  0
    6.7500    1.2990    0.0000 N   0  0  0  0  0  0  0  0  0  0  0  0
    6.0000    2.5981    0.0000 C   0  0  0  0  0  0  0  0  0  0  0  0
    6.7500    3.8971    0.0000 C   0  0  0  0  0  0  0  0  0  0  0  0
    6.0000    5.1962    0.0000 C   0  0  0  0  0  0  0  0  0  0  0  0
    6.7500    6.4952    0.0000 C   0  0  0  0  0  0  0  0  0  0  0  0
    6.0000    7.7942    0.0000 C   0  0  0  0  0  0  0  0  0  0  0  0
    4.5000    7.7942    0.0000 C   0  0  0  0  0  0  0  0  0  0  0  0
    3.7500    6.4952    0.0000 C   0  0  0  0  0  0  0  0  0  0  0  0
    4.5000    5.1962    0.0000 C   0  0  0  0  0  0  0  0  0  0  0  0
    4.5000    2.5981    0.0000 C   0  0  0  0  0  0  0  0  0  0  0  0
    3.7500    1.2990    0.0000 O   0  0  0  0  0  0  0  0  0  0  0  0
    3.7500    3.8971    0.0000 N   0  0  0  0  0  0  0  0  0  0  0  0
    2.2500    3.8971    0.0000 C   0  0  0  0  0  0  0  0  0  0  0  0
    1.5000    2.5981    0.0000 C   0  0  0  0  0  0  0  0  0  0  0  0
    0.0000    2.5981    0.0000 C   0  0  0  0  0  0  0  0  0  0  0  0
   -0.7500    1.2990    0.0000 C   0  0  0  0  0  0  0  0  0  0  0  0
   -2.2500    1.2990    0.0000 C   0  0  0  0  0  0  0  0  0  0  0  0
   -3.0000    2.5981    0.0000 C   0  0  0  0  0  0  0  0  0  0  0  0
   -2.2500    3.8971    0.0000 C   0  0  0  0  0  0  0  0  0  0  0  0
   -0.7500    3.8971    0.0000 C   0  0  0  0  0  0  0  0  0  0  0  0
    1.5000    5.1962    0.0000 C   0  0  0  0  0  0  0  0  0  0  0  0
    2.2500    6.4952    0.0000 O   0  0  0  0  0  0  0  0  0  0  0  0
    0.0000    5.1962    0.0000 N   0  0  0  0  0  0  0  0  0  0  0  0
   -0.7500    6.4952    0.0000 C   0  0  0  0  0  0  0  0  0  0  0  0
   -2.2500    6.4952    0.0000 C   0  0  0  0  0  0  0  0  0  0  0  0
   -3.0000    7.7942    0.0000 C   0  0  0  0  0  0  0  0  0  0  0  0
   -4.5000    7.7942    0.0000 C   0  0  0  0  0  0  0  0  0  0  0  0
   -5.2500    9.0933    0.0000 C   0  0  0  0  0  0  0  0  0  0  0  0
   -4.5000   10.3923    0.0000 C   0  0  0  0  0  0  0  0  0  0  0  0
   -3.0000   10.3923    0.0000 C   0  0  0  0  0  0  0  0  0  0  0  0
   -2.2500    9.0933    0.0000 C   0  0  0  0  0  0  0  0  0  0  0  0
    0.0000    7.7942    0.0000 C   0  0  0  0  0  0  0  0  0  0  0  0
    1.5000    7.7942    0.0000 O   0  0  0  0  0  0  0  0  0  0  0  0
   -0.7500    9.0933    0.0000 O   0  0  0  0  0  0  0  0  0  0  0  0
  1  2  1  0
  2  3  1  0
  2  4  1  0
  4  5  1  0
  5  6  1  0
  6  7  2  0
  6  8  2  0
  6  9  1  0
  9 10  2  0
 10 11  1  0
 11 12  2  0
 12 13  1  0
 13 14  2  0
  4 15  1  0
 15 16  2  0
 15 17  1  0
 17 18  1  0
 18 19  1  0
 19 20  1  0
 20 21  2  0
 21 22  1  0
 22 23  2  0
 23 24  1  0
 24 25  2  0
 18 26  1  0
 26 27  2  0
 26 28  1  0
 28 29  1  0
 29 30  1  0
 30 31  1  0
 31 32  2  0
 32 33  1  0
 33 34  2  0
 34 35  1  0
 35 36  2  0
 29 37  1  0
 37 38  2  0
 37 39  1  0
 39 40  1  0
 40 41  1  0
 41 42  1  0
 42 43  2  0
 43 44  1  0
 44 45  2  0
 45 46  1  0
 46 47  2  0
 40 48  1  0
 48 49  2  0
 48 50  1  0
 50 51  1  0
 51 52  1  0
 52 53  1  0
 53 54  2  0
 54 55  1  0
 55 56  2  0
 56 57  1  0
 57 58  2  0
 51 59  1  0
 59 60  2  0
 59 61  1  0
 14  9  1  0
 25 20  1  0
 36 31  1  0
 47 42  1  0
 58 53  1  0
M  END
>  <Title>  (187) 
idAAHEgen4

$$$$
