
     RDKit          2D

 32 34  0  0  0  0  0  0  0  0999 V2000
    5.4786   -2.7990    0.0000 C   0  0  0  0  0  0  0  0  0  0  0  0
    5.4786   -1.2990    0.0000 C   0  0  0  0  0  0  0  0  0  0  0  0
    5.4786    0.2010    0.0000 C   0  0  0  0  0  0  0  0  0  0  0  0
    6.9786   -1.2990    0.0000 C   0  0  0  0  0  0  0  0  0  0  0  0
    3.9786   -1.2990    0.0000 C   0  0  0  0  0  0  0  0  0  0  0  0
    3.2286   -0.0000    0.0000 C   0  0  0  0  0  0  0  0  0  0  0  0
    3.9786    1.2990    0.0000 O   0  0  0  0  0  0  0  0  0  0  0  0
    1.7286    0.0000    0.0000 N   0  0  0  0  0  0  0  0  0  0  0  0
    1.0777    1.3515    0.0000 C   0  0  0  0  0  0  0  0  0  0  0  0
   -0.3846    1.6852    0.0000 C   0  0  0  0  0  0  0  0  0  0  0  0
   -1.5574    0.7500    0.0000 O   0  0  0  0  0  0  0  0  0  0  0  0
   -1.5574   -0.7500    0.0000 C   0  0  0  0  0  0  0  0  0  0  0  0
   -0.3846   -1.6852    0.0000 C   0  0  0  0  0  0  0  0  0  0  0  0
    1.0777   -1.3515    0.0000 C   0  0  0  0  0  0  0  0  0  0  0  0
   -1.5574   -2.2500    0.0000 C   0  0  0  0  0  0  0  0  0  0  0  0
   -2.7301   -3.1852    0.0000 C   0  0  0  0  0  0  0  0  0  0  0  0
   -2.3964   -4.6476    0.0000 C   0  0  0  0  0  0  0  0  0  0  0  0
   -0.9630   -5.0898    0.0000 O   0  0  0  0  0  0  0  0  0  0  0  0
   -3.4959   -5.6679    0.0000 N   0  0  0  0  0  0  0  0  0  0  0  0
   -3.3168   -7.1572    0.0000 C   0  0  0  0  0  0  0  0  0  0  0  0
   -4.6779   -7.7877    0.0000 C   0  0  0  0  0  0  0  0  0  0  0  0
   -5.6981   -6.6881    0.0000 C   0  0  0  0  0  0  0  0  0  0  0  0
   -4.9677   -5.3780    0.0000 C   0  0  0  0  0  0  0  0  0  0  0  0
   -4.1925   -2.8515    0.0000 C   0  0  0  0  0  0  0  0  0  0  0  0
   -5.1278   -4.0242    0.0000 O   0  0  0  0  0  0  0  0  0  0  0  0
   -4.8434   -1.5000    0.0000 C   0  0  0  0  0  0  0  0  0  0  0  0
   -6.3434   -1.5000    0.0000 O   0  0  0  0  0  0  0  0  0  0  0  0
   -4.1925   -0.1485    0.0000 C   0  0  0  0  0  0  0  0  0  0  0  0
   -5.1278    1.0242    0.0000 O   0  0  0  0  0  0  0  0  0  0  0  0
   -2.7301    0.1852    0.0000 C   0  0  0  0  0  0  0  0  0  0  0  0
   -3.3810    1.5367    0.0000 C   0  0  0  0  0  0  0  0  0  0  0  0
   -2.2457    0.8183    0.0000 C   0  0  0  0  0  0  0  0  0  0  0  0
  1  2  1  0
  2  3  1  0
  2  4  1  0
  2  5  1  0
  5  6  1  0
  6  7  2  0
  6  8  1  0
  8  9  1  0
  9 10  1  0
 10 11  1  0
 11 12  1  0
 12 13  1  0
 13 14  1  0
 12 15  1  0
 15 16  1  0
 16 17  1  0
 17 18  2  0
 17 19  1  0
 19 20  1  0
 20 21  1  0
 21 22  1  0
 22 23  1  0
 16 24  1  0
 24 25  1  0
 24 26  1  0
 26 27  1  0
 26 28  1  0
 28 29  1  0
 28 30  1  0
 30 31  1  0
 30 32  1  0
 14  8  1  0
 23 19  1  0
 30 12  1  0
M  END
>  <Title>  (1) 
idAAAAgen7

$$$$

     RDKit          2D

 25 27  0  0  0  0  0  0  0  0999 V2000
    3.7500   -1.2990    0.0000 C   0  0  0  0  0  0  0  0  0  0  0  0
    3.0000    0.0000    0.0000 O   0  0  0  0  0  0  0  0  0  0  0  0
    1.5000    0.0000    0.0000 C   0  0  0  0  0  0  0  0  0  0  0  0
    0.7500   -1.2990    0.0000 C   0  0  0  0  0  0  0  0  0  0  0  0
   -0.7500   -1.2990    0.0000 C   0  0  0  0  0  0  0  0  0  0  0  0
   -1.5000    0.0000    0.0000 C   0  0  0  0  0  0  0  0  0  0  0  0
   -3.0000    0.0000    0.0000 C   0  0  0  0  0  0  0  0  0  0  0  0
   -3.7500   -1.2990    0.0000 O   0  0  0  0  0  0  0  0  0  0  0  0
   -3.7500    1.2990    0.0000 N   0  0  0  0  0  0  0  0  0  0  0  0
   -3.0000    2.5981    0.0000 C   0  0  0  0  0  0  0  0  0  0  0  0
   -3.7500    3.8971    0.0000 C   0  0  0  0  0  0  0  0  0  0  0  0
   -5.2500    3.8971    0.0000 N   0  0  0  0  0  0  0  0  0  0  0  0
   -6.0000    5.1962    0.0000 C   0  0  0  0  0  0  0  0  0  0  0  0
   -7.5000    5.1962    0.0000 O   0  0  0  0  0  0  0  0  0  0  0  0
   -5.2500    6.4952    0.0000 C   0  0  0  0  0  0  0  0  0  0  0  0
   -5.8601    7.8655    0.0000 C   0  0  0  0  0  0  0  0  0  0  0  0
   -4.7454    8.8692    0.0000 C   0  0  0  0  0  0  0  0  0  0  0  0
   -3.4463    8.1192    0.0000 C   0  0  0  0  0  0  0  0  0  0  0  0
   -3.7582    6.6520    0.0000 O   0  0  0  0  0  0  0  0  0  0  0  0
   -6.0000    2.5981    0.0000 C   0  0  0  0  0  0  0  0  0  0  0  0
   -5.2500    1.2990    0.0000 C   0  0  0  0  0  0  0  0  0  0  0  0
   -0.7500    1.2990    0.0000 C   0  0  0  0  0  0  0  0  0  0  0  0
    0.7500    1.2990    0.0000 C   0  0  0  0  0  0  0  0  0  0  0  0
    1.5000    2.5981    0.0000 O   0  0  0  0  0  0  0  0  0  0  0  0
    0.7500    3.8971    0.0000 C   0  0  0  0  0  0  0  0  0  0  0  0
  1  2  1  0
  2  3  1  0
  3  4  2  0
  4  5  1  0
  5  6  2  0
  6  7  1  0
  7  8  2  0
  7  9  1  0
  9 10  1  0
 10 11  1  0
 11 12  1  0
 12 13  1  0
 13 14  2  0
 13 15  1  0
 15 16  2  0
 16 17  1  0
 17 18  2  0
 18 19  1  0
 12 20  1  0
 20 21  1  0
  6 22  1  0
 22 23  2  0
 23 24  1  0
 24 25  1  0
 23  3  1  0
 21  9  1  0
 19 15  1  0
M  END
>  <Title>  (2) 
idAAABgen7

$$$$

     RDKit          2D

 34 37  0  0  0  0  0  0  0  0999 V2000
   -1.4033    6.9044    0.0000 C   0  0  0  0  0  0  0  0  0  0  0  0
   -2.7242    6.1936    0.0000 C   0  0  0  0  0  0  0  0  0  0  0  0
   -4.0451    5.4828    0.0000 C   0  0  0  0  0  0  0  0  0  0  0  0
   -3.4350    7.5145    0.0000 C   0  0  0  0  0  0  0  0  0  0  0  0
   -2.0134    4.8727    0.0000 N   0  0  0  0  0  0  0  0  0  0  0  0
   -2.8019    3.5967    0.0000 C   0  0  0  0  0  0  0  0  0  0  0  0
   -4.3012    3.6416    0.0000 O   0  0  0  0  0  0  0  0  0  0  0  0
   -2.0911    2.2758    0.0000 C   0  0  0  0  0  0  0  0  0  0  0  0
   -0.5926    2.3431    0.0000 C   0  0  0  0  0  0  0  0  0  0  0  0
    0.3943    1.2135    0.0000 C   0  0  0  0  0  0  0  0  0  0  0  0
    1.2760    0.0000    0.0000 C   0  0  0  0  0  0  0  0  0  0  0  0
    0.3943   -1.2135    0.0000 C   0  0  0  0  0  0  0  0  0  0  0  0
   -1.0323   -0.7500    0.0000 C   0  0  0  0  0  0  0  0  0  0  0  0
   -1.0323    0.7500    0.0000 C   0  0  0  0  0  0  0  0  0  0  0  0
   -2.5737   -0.3836    0.0000 C   0  0  0  0  0  0  0  0  0  0  0  0
   -2.9728    1.0623    0.0000 N   0  0  0  0  0  0  0  0  0  0  0  0
   -4.4487    1.3301    0.0000 C   0  0  0  0  0  0  0  0  0  0  0  0
   -4.9547    2.7422    0.0000 O   0  0  0  0  0  0  0  0  0  0  0  0
   -5.4186    0.1859    0.0000 C   0  0  0  0  0  0  0  0  0  0  0  0
   -4.9126   -1.2262    0.0000 C   0  0  0  0  0  0  0  0  0  0  0  0
   -5.8825   -2.3704    0.0000 C   0  0  0  0  0  0  0  0  0  0  0  0
   -5.3765   -3.7825    0.0000 C   0  0  0  0  0  0  0  0  0  0  0  0
   -6.3464   -4.9267    0.0000 C   0  0  0  0  0  0  0  0  0  0  0  0
   -7.8223   -4.6589    0.0000 C   0  0  0  0  0  0  0  0  0  0  0  0
   -8.3283   -3.2468    0.0000 C   0  0  0  0  0  0  0  0  0  0  0  0
   -7.3584   -2.1026    0.0000 C   0  0  0  0  0  0  0  0  0  0  0  0
   -6.8945    0.4537    0.0000 N   0  0  0  0  0  0  0  0  0  0  0  0
   -7.4005    1.8658    0.0000 C   0  0  0  0  0  0  0  0  0  0  0  0
   -6.4306    3.0101    0.0000 O   0  0  0  0  0  0  0  0  0  0  0  0
   -8.8764    2.1337    0.0000 O   0  0  0  0  0  0  0  0  0  0  0  0
   -9.3823    3.5457    0.0000 C   0  0  0  0  0  0  0  0  0  0  0  0
   -8.7417    4.9020    0.0000 C   0  0  0  0  0  0  0  0  0  0  0  0
  -10.0979    5.5427    0.0000 O   0  0  0  0  0  0  0  0  0  0  0  0
  -10.7386    4.1864    0.0000 C   0  0  0  0  0  0  0  0  0  0  0  0
  1  2  1  0
  2  3  1  0
  2  4  1  0
  2  5  1  0
  5  6  1  0
  6  7  2  0
  6  8  1  0
  8  9  1  0
  9 10  1  0
 10 11  1  0
 11 12  1  0
 12 13  1  0
 13 14  1  0
 13 15  1  0
 15 16  1  0
 16 17  1  0
 17 18  2  0
 17 19  1  0
 19 20  1  0
 20 21  1  0
 21 22  2  0
 22 23  1  0
 23 24  2  0
 24 25  1  0
 25 26  2  0
 19 27  1  0
 27 28  1  0
 28 29  2  0
 28 30  1  0
 30 31  1  0
 31 32  1  0
 32 33  1  0
 33 34  1  0
 16  8  1  0
 26 21  1  0
 34 31  1  0
 14 10  1  0
M  END
>  <Title>  (3) 
idAAACgen7

$$$$

     RDKit          2D

 64 70  0  0  0  0  0  0  0  0999 V2000
   -1.4033    6.9044    0.0000 C   0  0  0  0  0  0  0  0  0  0  0  0
   -2.7242    6.1936    0.0000 C   0  0  0  0  0  0  0  0  0  0  0  0
   -4.0451    5.4828    0.0000 C   0  0  0  0  0  0  0  0  0  0  0  0
   -3.4350    7.5145    0.0000 C   0  0  0  0  0  0  0  0  0  0  0  0
   -2.0134    4.8727    0.0000 N   0  0  0  0  0  0  0  0  0  0  0  0
   -2.8019    3.5967    0.0000 C   0  0  0  0  0  0  0  0  0  0  0  0
   -4.2675    3.2775    0.0000 O   0  0  0  0  0  0  0  0  0  0  0  0
   -2.0911    2.2758    0.0000 C   0  0  0  0  0  0  0  0  0  0  0  0
   -0.5926    2.3431    0.0000 C   0  0  0  0  0  0  0  0  0  0  0  0
    0.3943    1.2135    0.0000 C   0  0  0  0  0  0  0  0  0  0  0  0
    1.2760    0.0000    0.0000 C   0  0  0  0  0  0  0  0  0  0  0  0
    0.3943   -1.2135    0.0000 C   0  0  0  0  0  0  0  0  0  0  0  0
   -1.0323   -0.7500    0.0000 C   0  0  0  0  0  0  0  0  0  0  0  0
   -2.5737   -0.3836    0.0000 C   0  0  0  0  0  0  0  0  0  0  0  0
   -2.9728    1.0623    0.0000 C   0  0  0  0  0  0  0  0  0  0  0  0
   -4.4487    1.3301    0.0000 C   0  0  0  0  0  0  0  0  0  0  0  0
   -5.2813    2.5778    0.0000 O   0  0  0  0  0  0  0  0  0  0  0  0
   -5.4186    0.1859    0.0000 N   0  0  0  0  0  0  0  0  0  0  0  0
   -6.8945    0.4537    0.0000 C   0  0  0  0  0  0  0  0  0  0  0  0
   -7.8644   -0.6905    0.0000 C   0  0  0  0  0  0  0  0  0  0  0  0
   -9.3403   -0.4227    0.0000 C   0  0  0  0  0  0  0  0  0  0  0  0
   -9.8463    0.9894    0.0000 C   0  0  0  0  0  0  0  0  0  0  0  0
  -11.3221    1.2572    0.0000 C   0  0  0  0  0  0  0  0  0  0  0  0
  -12.2920    0.1130    0.0000 C   0  0  0  0  0  0  0  0  0  0  0  0
  -11.7861   -1.2991    0.0000 C   0  0  0  0  0  0  0  0  0  0  0  0
  -10.3102   -1.5669    0.0000 C   0  0  0  0  0  0  0  0  0  0  0  0
   -7.4005    1.8658    0.0000 C   0  0  0  0  0  0  0  0  0  0  0  0
   -6.4306    3.0101    0.0000 O   0  0  0  0  0  0  0  0  0  0  0  0
   -8.8764    2.1337    0.0000 N   0  0  0  0  0  0  0  0  0  0  0  0
   -9.3823    3.5457    0.0000 C   0  0  0  0  0  0  0  0  0  0  0  0
  -10.8582    3.8136    0.0000 C   0  0  0  0  0  0  0  0  0  0  0  0
  -11.3642    5.2256    0.0000 C   0  0  0  0  0  0  0  0  0  0  0  0
  -10.3943    6.3699    0.0000 C   0  0  0  0  0  0  0  0  0  0  0  0
  -10.9003    7.7820    0.0000 C   0  0  0  0  0  0  0  0  0  0  0  0
  -12.3762    8.0498    0.0000 C   0  0  0  0  0  0  0  0  0  0  0  0
  -13.3461    6.9056    0.0000 C   0  0  0  0  0  0  0  0  0  0  0  0
  -12.8401    5.4935    0.0000 C   0  0  0  0  0  0  0  0  0  0  0  0
   -8.4125    4.6900    0.0000 C   0  0  0  0  0  0  0  0  0  0  0  0
   -8.5617    6.1825    0.0000 O   0  0  0  0  0  0  0  0  0  0  0  0
   -7.0452    4.0730    0.0000 O   0  0  0  0  0  0  0  0  0  0  0  0
   -1.0323    0.7500    0.0000 C   0  0  0  0  0  0  0  0  0  0  0  0
   -2.2458    1.6317    0.0000 C   0  0  0  0  0  0  0  0  0  0  0  0
   -2.0890    3.1235    0.0000 C   0  0  0  0  0  0  0  0  0  0  0  0
   -0.7187    3.7336    0.0000 O   0  0  0  0  0  0  0  0  0  0  0  0
   -3.3025    4.0051    0.0000 C   0  0  0  0  0  0  0  0  0  0  0  0
   -3.1458    5.4969    0.0000 C   0  0  0  0  0  0  0  0  0  0  0  0
   -4.3593    6.3786    0.0000 C   0  0  0  0  0  0  0  0  0  0  0  0
   -4.2025    7.8704    0.0000 C   0  0  0  0  0  0  0  0  0  0  0  0
   -5.4160    8.7521    0.0000 C   0  0  0  0  0  0  0  0  0  0  0  0
   -6.7863    8.1420    0.0000 C   0  0  0  0  0  0  0  0  0  0  0  0
   -6.9431    6.6502    0.0000 C   0  0  0  0  0  0  0  0  0  0  0  0
   -5.7296    5.7685    0.0000 C   0  0  0  0  0  0  0  0  0  0  0  0
   -4.6729    3.3950    0.0000 N   0  0  0  0  0  0  0  0  0  0  0  0
   -5.8864    4.2767    0.0000 C   0  0  0  0  0  0  0  0  0  0  0  0
   -6.0952    5.7621    0.0000 O   0  0  0  0  0  0  0  0  0  0  0  0
   -7.2567    3.6666    0.0000 O   0  0  0  0  0  0  0  0  0  0  0  0
   -8.4702    4.5483    0.0000 C   0  0  0  0  0  0  0  0  0  0  0  0
   -8.4702    6.0483    0.0000 C   0  0  0  0  0  0  0  0  0  0  0  0
   -9.8968    6.5118    0.0000 O   0  0  0  0  0  0  0  0  0  0  0  0
  -10.7785    5.2983    0.0000 C   0  0  0  0  0  0  0  0  0  0  0  0
  -12.2051    4.8348    0.0000 O   0  0  0  0  0  0  0  0  0  0  0  0
  -12.2051    3.3348    0.0000 O   0  0  0  0  0  0  0  0  0  0  0  0
  -10.7785    2.8712    0.0000 C   0  0  0  0  0  0  0  0  0  0  0  0
   -9.8968    4.0848    0.0000 C   0  0  0  0  0  0  0  0  0  0  0  0
  1  2  1  0
  2  3  1  0
  2  4  1  0
  2  5  1  0
  5  6  1  0
  6  7  2  0
  6  8  1  0
  8  9  1  0
  9 10  1  0
 10 11  1  0
 11 12  1  0
 12 13  1  0
 13 14  1  0
 14 15  1  0
 15 16  1  0
 16 17  2  0
 16 18  1  0
 18 19  1  0
 19 20  1  0
 20 21  1  0
 21 22  2  0
 22 23  1  0
 23 24  2  0
 24 25  1  0
 25 26  2  0
 19 27  1  0
 27 28  2  0
 27 29  1  0
 29 30  1  0
 30 31  1  0
 31 32  1  0
 32 33  2  0
 33 34  1  0
 34 35  2  0
 35 36  1  0
 36 37  2  0
 30 38  1  0
 38 39  2  0
 38 40  1  0
 13 41  1  0
 41 42  1  0
 42 43  1  0
 43 44  1  0
 43 45  1  0
 45 46  1  0
 46 47  1  0
 47 48  2  0
 48 49  1  0
 49 50  2  0
 50 51  1  0
 51 52  2  0
 45 53  1  0
 53 54  1  0
 54 55  2  0
 54 56  1  0
 56 57  1  0
 57 58  1  0
 58 59  1  0
 59 60  1  0
 60 61  1  0
 61 62  1  0
 62 63  1  0
 63 64  1  0
 15  8  1  0
 26 21  1  0
 37 32  1  0
 52 47  1  0
 64 57  1  0
 41 10  1  0
 64 60  1  0
M  END
>  <Title>  (4) 
idAAADgen7

$$$$

     RDKit          2D

 48 54  0  0  0  0  0  0  0  0999 V2000
    0.9563    7.2740    0.0000 C   0  0  0  0  0  0  0  0  0  0  0  0
    0.7498    5.7883    0.0000 C   0  0  0  0  0  0  0  0  0  0  0  0
   -0.6527    6.3202    0.0000 C   0  0  0  0  0  0  0  0  0  0  0  0
    2.2442    5.9176    0.0000 C   0  0  0  0  0  0  0  0  0  0  0  0
    3.2771    4.8298    0.0000 C   0  0  0  0  0  0  0  0  0  0  0  0
    3.0706    3.3441    0.0000 C   0  0  0  0  0  0  0  0  0  0  0  0
    1.7803    2.5792    0.0000 C   0  0  0  0  0  0  0  0  0  0  0  0
    3.2622    2.3471    0.0000 C   0  0  0  0  0  0  0  0  0  0  0  0
    2.7750    1.4564    0.0000 C   0  0  0  0  0  0  0  0  0  0  0  0
    4.1031    2.1535    0.0000 C   0  0  0  0  0  0  0  0  0  0  0  0
    5.3709    1.3518    0.0000 C   0  0  0  0  0  0  0  0  0  0  0  0
    6.6991    2.0489    0.0000 C   0  0  0  0  0  0  0  0  0  0  0  0
    6.9158    3.5331    0.0000 C   0  0  0  0  0  0  0  0  0  0  0  0
    8.3944    3.7857    0.0000 C   0  0  0  0  0  0  0  0  0  0  0  0
    9.0915    2.4575    0.0000 C   0  0  0  0  0  0  0  0  0  0  0  0
    8.0438    1.3841    0.0000 C   0  0  0  0  0  0  0  0  0  0  0  0
    3.1339    0.0000    0.0000 C   0  0  0  0  0  0  0  0  0  0  0  0
    2.7750   -1.4564    0.0000 C   0  0  0  0  0  0  0  0  0  0  0  0
    1.7803   -2.5792    0.0000 C   0  0  0  0  0  0  0  0  0  0  0  0
    0.3778   -3.1111    0.0000 C   0  0  0  0  0  0  0  0  0  0  0  0
   -1.1113   -2.9303    0.0000 C   0  0  0  0  0  0  0  0  0  0  0  0
   -2.3458   -2.0782    0.0000 C   0  0  0  0  0  0  0  0  0  0  0  0
   -3.4686   -3.0729    0.0000 C   0  0  0  0  0  0  0  0  0  0  0  0
   -4.8914   -2.5979    0.0000 C   0  0  0  0  0  0  0  0  0  0  0  0
   -6.0141   -3.5926    0.0000 C   0  0  0  0  0  0  0  0  0  0  0  0
   -5.8694   -5.0855    0.0000 C   0  0  0  0  0  0  0  0  0  0  0  0
   -7.2445   -5.6846    0.0000 C   0  0  0  0  0  0  0  0  0  0  0  0
   -8.2392   -4.5618    0.0000 C   0  0  0  0  0  0  0  0  0  0  0  0
   -7.4788   -3.2689    0.0000 C   0  0  0  0  0  0  0  0  0  0  0  0
   -3.0429   -0.7500    0.0000 C   0  0  0  0  0  0  0  0  0  0  0  0
   -3.0429    0.7500    0.0000 C   0  0  0  0  0  0  0  0  0  0  0  0
   -2.3458    2.0782    0.0000 C   0  0  0  0  0  0  0  0  0  0  0  0
   -1.1113    2.9303    0.0000 C   0  0  0  0  0  0  0  0  0  0  0  0
    0.3778    3.1111    0.0000 C   0  0  0  0  0  0  0  0  0  0  0  0
   -0.8854    3.9201    0.0000 C   0  0  0  0  0  0  0  0  0  0  0  0
   -0.0808    4.5393    0.0000 C   0  0  0  0  0  0  0  0  0  0  0  0
   -1.5666    4.7457    0.0000 C   0  0  0  0  0  0  0  0  0  0  0  0
   -2.1306    6.1357    0.0000 C   0  0  0  0  0  0  0  0  0  0  0  0
   -3.6163    6.3421    0.0000 C   0  0  0  0  0  0  0  0  0  0  0  0
   -4.1804    7.7320    0.0000 C   0  0  0  0  0  0  0  0  0  0  0  0
   -5.6661    7.9385    0.0000 C   0  0  0  0  0  0  0  0  0  0  0  0
   -6.5878    6.7551    0.0000 C   0  0  0  0  0  0  0  0  0  0  0  0
   -6.0237    5.3652    0.0000 C   0  0  0  0  0  0  0  0  0  0  0  0
   -3.4652    7.4298    0.0000 C   0  0  0  0  0  0  0  0  0  0  0  0
   -3.2587    8.9155    0.0000 C   0  0  0  0  0  0  0  0  0  0  0  0
   -4.7444    9.1220    0.0000 C   0  0  0  0  0  0  0  0  0  0  0  0
   -2.6947    7.5256    0.0000 C   0  0  0  0  0  0  0  0  0  0  0  0
   -4.5380    5.1587    0.0000 C   0  0  0  0  0  0  0  0  0  0  0  0
  1  2  1  0
  2  3  1  0
  2  4  1  0
  4  5  1  0
  5  6  1  0
  6  7  1  0
  7  8  1  0
  7  9  1  0
  9 10  1  0
 10 11  1  0
 11 12  1  0
 12 13  1  0
 13 14  1  0
 14 15  1  0
 15 16  1  0
  9 17  1  0
 17 18  1  0
 18 19  1  0
 19 20  1  0
 20 21  1  0
 21 22  1  0
 22 23  1  0
 23 24  1  0
 24 25  1  0
 25 26  1  0
 26 27  1  0
 27 28  1  0
 28 29  1  0
 22 30  1  0
 30 31  1  0
 31 32  1  0
 32 33  1  0
 33 34  1  0
 34 35  1  0
 34 36  1  0
 36 37  1  0
 37 38  1  0
 38 39  1  0
 39 40  1  0
 40 41  1  0
 41 42  1  0
 42 43  1  0
 43 44  1  0
 44 45  1  0
 45 46  1  0
 45 47  1  0
 43 48  1  0
 36  2  1  0
 47 39  1  0
 34  7  1  0
 48 39  1  0
 16 12  1  0
 29 25  1  0
 46 41  1  0
M  END
>  <Title>  (5) 
idAAAEgen7

$$$$

     RDKit          2D

 73 78  0  0  0  0  0  0  0  0999 V2000
    0.2010   -8.5442    0.0000 C   0  0  0  0  0  0  0  0  0  0  0  0
    1.5000   -7.7942    0.0000 C   0  0  0  0  0  0  0  0  0  0  0  0
    2.7990   -7.0442    0.0000 C   0  0  0  0  0  0  0  0  0  0  0  0
    2.2500   -9.0933    0.0000 C   0  0  0  0  0  0  0  0  0  0  0  0
    0.7500   -6.4952    0.0000 C   0  0  0  0  0  0  0  0  0  0  0  0
    1.5000   -5.1962    0.0000 C   0  0  0  0  0  0  0  0  0  0  0  0
    0.7500   -3.8971    0.0000 N   0  0  0  0  0  0  0  0  0  0  0  0
    1.5000   -2.5981    0.0000 C   0  0  0  0  0  0  0  0  0  0  0  0
    2.9554   -2.9610    0.0000 O   0  0  0  0  0  0  0  0  0  0  0  0
    0.7500   -1.2990    0.0000 C   0  0  0  0  0  0  0  0  0  0  0  0
    1.5000    0.0000    0.0000 C   0  0  0  0  0  0  0  0  0  0  0  0
    0.7500    1.2990    0.0000 C   0  0  0  0  0  0  0  0  0  0  0  0
   -0.7500    1.2990    0.0000 C   0  0  0  0  0  0  0  0  0  0  0  0
   -1.5000    0.0000    0.0000 C   0  0  0  0  0  0  0  0  0  0  0  0
   -0.7500   -1.2990    0.0000 C   0  0  0  0  0  0  0  0  0  0  0  0
    3.0000   -5.1962    0.0000 C   0  0  0  0  0  0  0  0  0  0  0  0
    4.0420   -4.1172    0.0000 O   0  0  0  0  0  0  0  0  0  0  0  0
    3.7500   -6.4952    0.0000 N   0  0  0  0  0  0  0  0  0  0  0  0
    5.2500   -6.4952    0.0000 C   0  0  0  0  0  0  0  0  0  0  0  0
    6.0000   -7.7942    0.0000 C   0  0  0  0  0  0  0  0  0  0  0  0
    7.5000   -7.7942    0.0000 C   0  0  0  0  0  0  0  0  0  0  0  0
    8.2500   -9.0933    0.0000 C   0  0  0  0  0  0  0  0  0  0  0  0
    9.7500   -9.0933    0.0000 C   0  0  0  0  0  0  0  0  0  0  0  0
   10.5000   -7.7942    0.0000 C   0  0  0  0  0  0  0  0  0  0  0  0
    9.7500   -6.4952    0.0000 C   0  0  0  0  0  0  0  0  0  0  0  0
    8.2500   -6.4952    0.0000 C   0  0  0  0  0  0  0  0  0  0  0  0
    6.0000   -5.1962    0.0000 C   0  0  0  0  0  0  0  0  0  0  0  0
    4.9580   -4.1172    0.0000 O   0  0  0  0  0  0  0  0  0  0  0  0
    7.5000   -5.1962    0.0000 N   0  0  0  0  0  0  0  0  0  0  0  0
    8.2500   -3.8971    0.0000 C   0  0  0  0  0  0  0  0  0  0  0  0
    9.7500   -3.8971    0.0000 C   0  0  0  0  0  0  0  0  0  0  0  0
   10.5000   -2.5981    0.0000 C   0  0  0  0  0  0  0  0  0  0  0  0
   12.0000   -2.5981    0.0000 C   0  0  0  0  0  0  0  0  0  0  0  0
   12.7500   -1.2990    0.0000 C   0  0  0  0  0  0  0  0  0  0  0  0
   12.0000   -0.0000    0.0000 C   0  0  0  0  0  0  0  0  0  0  0  0
   10.5000   -0.0000    0.0000 C   0  0  0  0  0  0  0  0  0  0  0  0
    9.7500   -1.2990    0.0000 C   0  0  0  0  0  0  0  0  0  0  0  0
    7.5000   -2.5981    0.0000 C   0  0  0  0  0  0  0  0  0  0  0  0
    6.0446   -2.9610    0.0000 O   0  0  0  0  0  0  0  0  0  0  0  0
    8.2500   -1.2990    0.0000 N   0  0  0  0  0  0  0  0  0  0  0  0
    7.5000   -0.0000    0.0000 C   0  0  0  0  0  0  0  0  0  0  0  0
    8.2500    1.2990    0.0000 C   0  0  0  0  0  0  0  0  0  0  0  0
    7.5000    2.5981    0.0000 C   0  0  0  0  0  0  0  0  0  0  0  0
    8.2500    3.8971    0.0000 C   0  0  0  0  0  0  0  0  0  0  0  0
    7.5000    5.1962    0.0000 C   0  0  0  0  0  0  0  0  0  0  0  0
    6.0000    5.1962    0.0000 C   0  0  0  0  0  0  0  0  0  0  0  0
    5.2500    3.8971    0.0000 C   0  0  0  0  0  0  0  0  0  0  0  0
    6.0000    2.5981    0.0000 C   0  0  0  0  0  0  0  0  0  0  0  0
    6.0000   -0.0000    0.0000 C   0  0  0  0  0  0  0  0  0  0  0  0
    5.7803   -0.7663    0.0000 O   0  0  0  0  0  0  0  0  0  0  0  0
    5.2500    1.2990    0.0000 N   0  0  0  0  0  0  0  0  0  0  0  0
    3.7500    1.2990    0.0000 C   0  0  0  0  0  0  0  0  0  0  0  0
    3.0000   -0.0000    0.0000 C   0  0  0  0  0  0  0  0  0  0  0  0
    3.7500   -1.2990    0.0000 C   0  0  0  0  0  0  0  0  0  0  0  0
    5.2500   -1.2990    0.0000 C   0  0  0  0  0  0  0  0  0  0  0  0
    6.0000   -2.5981    0.0000 C   0  0  0  0  0  0  0  0  0  0  0  0
    5.2500   -3.8971    0.0000 C   0  0  0  0  0  0  0  0  0  0  0  0
    3.7500   -3.8971    0.0000 C   0  0  0  0  0  0  0  0  0  0  0  0
    3.0000   -2.5981    0.0000 C   0  0  0  0  0  0  0  0  0  0  0  0
    3.0000    2.5981    0.0000 C   0  0  0  0  0  0  0  0  0  0  0  0
    3.7500    3.8971    0.0000 O   0  0  0  0  0  0  0  0  0  0  0  0
    1.5000    2.5981    0.0000 N   0  0  0  0  0  0  0  0  0  0  0  0
    0.7500    3.8971    0.0000 C   0  0  0  0  0  0  0  0  0  0  0  0
   -0.7500    3.8971    0.0000 C   0  0  0  0  0  0  0  0  0  0  0  0
   -1.5000    5.1962    0.0000 C   0  0  0  0  0  0  0  0  0  0  0  0
   -3.0000    5.1962    0.0000 C   0  0  0  0  0  0  0  0  0  0  0  0
   -3.7500    6.4952    0.0000 C   0  0  0  0  0  0  0  0  0  0  0  0
   -3.0000    7.7942    0.0000 C   0  0  0  0  0  0  0  0  0  0  0  0
   -1.5000    7.7942    0.0000 C   0  0  0  0  0  0  0  0  0  0  0  0
   -0.7500    6.4952    0.0000 C   0  0  0  0  0  0  0  0  0  0  0  0
    1.5000    5.1962    0.0000 C   0  0  0  0  0  0  0  0  0  0  0  0
    3.0000    5.1962    0.0000 O   0  0  0  0  0  0  0  0  0  0  0  0
    0.7500    6.4952    0.0000 O   0  0  0  0  0  0  0  0  0  0  0  0
  1  2  1  0
  2  3  1  0
  2  4  1  0
  2  5  1  0
  5  6  1  0
  6  7  1  0
  7  8  1  0
  8  9  2  0
  8 10  1  0
 10 11  2  0
 11 12  1  0
 12 13  2  0
 13 14  1  0
 14 15  2  0
  6 16  1  0
 16 17  2  0
 16 18  1  0
 18 19  1  0
 19 20  1  0
 20 21  1  0
 21 22  2  0
 22 23  1  0
 23 24  2  0
 24 25  1  0
 25 26  2  0
 19 27  1  0
 27 28  2  0
 27 29  1  0
 29 30  1  0
 30 31  1  0
 31 32  1  0
 32 33  2  0
 33 34  1  0
 34 35  2  0
 35 36  1  0
 36 37  2  0
 30 38  1  0
 38 39  2  0
 38 40  1  0
 40 41  1  0
 41 42  1  0
 42 43  1  0
 43 44  2  0
 44 45  1  0
 45 46  2  0
 46 47  1  0
 47 48  2  0
 41 49  1  0
 49 50  2  0
 49 51  1  0
 51 52  1  0
 52 53  1  0
 53 54  1  0
 54 55  2  0
 55 56  1  0
 56 57  2  0
 57 58  1  0
 58 59  2  0
 52 60  1  0
 60 61  2  0
 60 62  1  0
 62 63  1  0
 63 64  1  0
 64 65  1  0
 65 66  2  0
 66 67  1  0
 67 68  2  0
 68 69  1  0
 69 70  2  0
 63 71  1  0
 71 72  2  0
 71 73  1  0
 15 10  1  0
 26 21  1  0
 37 32  1  0
 48 43  1  0
 59 54  1  0
 70 65  1  0
M  END
>  <Title>  (6) 
idAAAFgen7

$$$$

     RDKit          2D

 57 63  0  0  0  0  0  0  0  0999 V2000
   -0.7500   -3.8971    0.0000 O   0  0  0  0  0  0  0  0  0  0  0  0
    0.7500   -3.8971    0.0000 C   0  0  0  0  0  0  0  0  0  0  0  0
    1.5000   -5.1962    0.0000 N   0  0  0  0  0  0  0  0  0  0  0  0
    0.7500   -6.4952    0.0000 C   0  0  0  0  0  0  0  0  0  0  0  0
    1.5000   -7.7942    0.0000 C   0  0  0  0  0  0  0  0  0  0  0  0
    2.9095   -7.2812    0.0000 C   0  0  0  0  0  0  0  0  0  0  0  0
    4.0586   -8.2454    0.0000 C   0  0  0  0  0  0  0  0  0  0  0  0
    5.4681   -7.7323    0.0000 C   0  0  0  0  0  0  0  0  0  0  0  0
    5.7286   -6.2551    0.0000 C   0  0  0  0  0  0  0  0  0  0  0  0
    4.5796   -5.2910    0.0000 C   0  0  0  0  0  0  0  0  0  0  0  0
    3.1700   -5.8040    0.0000 N   0  0  0  0  0  0  0  0  0  0  0  0
    1.7605   -9.2714    0.0000 C   0  0  0  0  0  0  0  0  0  0  0  0
    0.3509   -8.7584    0.0000 C   0  0  0  0  0  0  0  0  0  0  0  0
    1.5000   -2.5981    0.0000 N   0  0  0  0  0  0  0  0  0  0  0  0
    0.7500   -1.2990    0.0000 C   0  0  0  0  0  0  0  0  0  0  0  0
    1.5000    0.0000    0.0000 C   0  0  0  0  0  0  0  0  0  0  0  0
    0.7500    1.2990    0.0000 C   0  0  0  0  0  0  0  0  0  0  0  0
   -0.7500    1.2990    0.0000 C   0  0  0  0  0  0  0  0  0  0  0  0
   -1.5000    0.0000    0.0000 C   0  0  0  0  0  0  0  0  0  0  0  0
   -0.7500   -1.2990    0.0000 C   0  0  0  0  0  0  0  0  0  0  0  0
   -0.0000   -0.0000    0.0000 C   0  0  0  0  0  0  0  0  0  0  0  0
    0.7500   -1.2990    0.0000 C   0  0  0  0  0  0  0  0  0  0  0  0
    2.2500   -1.2990    0.0000 O   0  0  0  0  0  0  0  0  0  0  0  0
   -0.0000   -2.5981    0.0000 N   0  0  0  0  0  0  0  0  0  0  0  0
    0.7500   -3.8971    0.0000 C   0  0  0  0  0  0  0  0  0  0  0  0
   -0.0000   -5.1962    0.0000 C   0  0  0  0  0  0  0  0  0  0  0  0
    0.7500   -6.4952    0.0000 C   0  0  0  0  0  0  0  0  0  0  0  0
   -0.0000   -7.7942    0.0000 C   0  0  0  0  0  0  0  0  0  0  0  0
    0.7500   -9.0933    0.0000 C   0  0  0  0  0  0  0  0  0  0  0  0
    2.2500   -9.0933    0.0000 C   0  0  0  0  0  0  0  0  0  0  0  0
    3.0000   -7.7942    0.0000 C   0  0  0  0  0  0  0  0  0  0  0  0
    2.2500   -6.4952    0.0000 C   0  0  0  0  0  0  0  0  0  0  0  0
    2.2500   -3.8971    0.0000 C   0  0  0  0  0  0  0  0  0  0  0  0
    3.0000   -2.5981    0.0000 O   0  0  0  0  0  0  0  0  0  0  0  0
    3.0000   -5.1962    0.0000 N   0  0  0  0  0  0  0  0  0  0  0  0
    4.5000   -5.1962    0.0000 C   0  0  0  0  0  0  0  0  0  0  0  0
    5.2500   -6.4952    0.0000 C   0  0  0  0  0  0  0  0  0  0  0  0
    6.7500   -6.4952    0.0000 C   0  0  0  0  0  0  0  0  0  0  0  0
    7.5000   -7.7942    0.0000 C   0  0  0  0  0  0  0  0  0  0  0  0
    9.0000   -7.7942    0.0000 C   0  0  0  0  0  0  0  0  0  0  0  0
    9.7500   -6.4952    0.0000 C   0  0  0  0  0  0  0  0  0  0  0  0
    9.0000   -5.1962    0.0000 C   0  0  0  0  0  0  0  0  0  0  0  0
    7.5000   -5.1962    0.0000 C   0  0  0  0  0  0  0  0  0  0  0  0
    5.2500   -3.8971    0.0000 C   0  0  0  0  0  0  0  0  0  0  0  0
    4.5000   -2.5981    0.0000 O   0  0  0  0  0  0  0  0  0  0  0  0
    6.7500   -3.8971    0.0000 N   0  0  0  0  0  0  0  0  0  0  0  0
    7.5000   -2.5981    0.0000 C   0  0  0  0  0  0  0  0  0  0  0  0
    9.0000   -2.5981    0.0000 C   0  0  0  0  0  0  0  0  0  0  0  0
    9.7500   -1.2990    0.0000 C   0  0  0  0  0  0  0  0  0  0  0  0
   11.2500   -1.2990    0.0000 C   0  0  0  0  0  0  0  0  0  0  0  0
   12.0000   -0.0000    0.0000 C   0  0  0  0  0  0  0  0  0  0  0  0
   11.2500    1.2990    0.0000 C   0  0  0  0  0  0  0  0  0  0  0  0
    9.7500    1.2990    0.0000 C   0  0  0  0  0  0  0  0  0  0  0  0
    9.0000   -0.0000    0.0000 C   0  0  0  0  0  0  0  0  0  0  0  0
    6.7500   -1.2990    0.0000 C   0  0  0  0  0  0  0  0  0  0  0  0
    5.2500   -1.2990    0.0000 O   0  0  0  0  0  0  0  0  0  0  0  0
    7.5000   -0.0000    0.0000 O   0  0  0  0  0  0  0  0  0  0  0  0
  1  2  2  0
  2  3  1  0
  3  4  1  0
  4  5  1  0
  5  6  1  0
  6  7  2  0
  7  8  1  0
  8  9  2  0
  9 10  1  0
 10 11  2  0
  5 12  1  0
 12 13  1  0
  2 14  1  0
 14 15  1  0
 15 16  1  0
 16 17  1  0
 17 18  1  0
 18 19  1  0
 19 20  1  0
 19 21  1  0
 21 22  1  0
 22 23  2  0
 22 24  1  0
 24 25  1  0
 25 26  1  0
 26 27  1  0
 27 28  2  0
 28 29  1  0
 29 30  2  0
 30 31  1  0
 31 32  2  0
 25 33  1  0
 33 34  2  0
 33 35  1  0
 35 36  1  0
 36 37  1  0
 37 38  1  0
 38 39  2  0
 39 40  1  0
 40 41  2  0
 41 42  1  0
 42 43  2  0
 36 44  1  0
 44 45  2  0
 44 46  1  0
 46 47  1  0
 47 48  1  0
 48 49  1  0
 49 50  2  0
 50 51  1  0
 51 52  2  0
 52 53  1  0
 53 54  2  0
 47 55  1  0
 55 56  2  0
 55 57  1  0
 13  5  1  0
 20 15  1  0
 32 27  1  0
 43 38  1  0
 54 49  1  0
 11  6  1  0
 21 17  1  0
M  END
>  <Title>  (7) 
idAAAGgen7

$$$$

     RDKit          2D

 54 58  0  0  0  0  0  0  0  0999 V2000
   -7.9140   11.2578    0.0000 C   0  0  0  0  0  0  0  0  0  0  0  0
   -7.9140    9.7578    0.0000 C   0  0  0  0  0  0  0  0  0  0  0  0
   -7.9140    8.2578    0.0000 C   0  0  0  0  0  0  0  0  0  0  0  0
   -9.4140    9.7578    0.0000 C   0  0  0  0  0  0  0  0  0  0  0  0
   -6.4140    9.7578    0.0000 C   0  0  0  0  0  0  0  0  0  0  0  0
   -5.6640    8.4587    0.0000 C   0  0  0  0  0  0  0  0  0  0  0  0
   -6.4140    7.1597    0.0000 N   0  0  0  0  0  0  0  0  0  0  0  0
   -5.6640    5.8606    0.0000 C   0  0  0  0  0  0  0  0  0  0  0  0
   -4.1640    5.8606    0.0000 O   0  0  0  0  0  0  0  0  0  0  0  0
   -6.4140    4.5616    0.0000 C   0  0  0  0  0  0  0  0  0  0  0  0
   -7.9140    4.5616    0.0000 C   0  0  0  0  0  0  0  0  0  0  0  0
   -8.6640    5.8606    0.0000 C   0  0  0  0  0  0  0  0  0  0  0  0
   -7.9140    7.1597    0.0000 C   0  0  0  0  0  0  0  0  0  0  0  0
   -8.6640    8.4587    0.0000 C   0  0  0  0  0  0  0  0  0  0  0  0
  -10.1640    8.4587    0.0000 C   0  0  0  0  0  0  0  0  0  0  0  0
  -10.9140    7.1597    0.0000 C   0  0  0  0  0  0  0  0  0  0  0  0
  -10.1640    5.8606    0.0000 C   0  0  0  0  0  0  0  0  0  0  0  0
   -5.6640    3.2626    0.0000 N   0  0  0  0  0  0  0  0  0  0  0  0
   -4.1640    3.2626    0.0000 C   0  0  0  0  0  0  0  0  0  0  0  0
   -3.4140    4.5616    0.0000 O   0  0  0  0  0  0  0  0  0  0  0  0
   -3.4140    1.9635    0.0000 O   0  0  0  0  0  0  0  0  0  0  0  0
   -1.9140    1.9635    0.0000 C   0  0  0  0  0  0  0  0  0  0  0  0
   -1.0323    3.1771    0.0000 C   0  0  0  0  0  0  0  0  0  0  0  0
    0.3943    2.7135    0.0000 O   0  0  0  0  0  0  0  0  0  0  0  0
    0.3943    1.2135    0.0000 C   0  0  0  0  0  0  0  0  0  0  0  0
    1.2760    0.0000    0.0000 O   0  0  0  0  0  0  0  0  0  0  0  0
    0.3943   -1.2135    0.0000 C   0  0  0  0  0  0  0  0  0  0  0  0
   -1.0323   -0.7500    0.0000 C   0  0  0  0  0  0  0  0  0  0  0  0
   -1.0323    0.7500    0.0000 C   0  0  0  0  0  0  0  0  0  0  0  0
   -4.1640    8.4587    0.0000 S   0  0  0  0  0  0  0  0  0  0  0  0
   -4.1640    9.9587    0.0000 O   0  0  0  0  0  0  0  0  0  0  0  0
   -4.1640    6.9587    0.0000 O   0  0  0  0  0  0  0  0  0  0  0  0
   -2.6640    8.4587    0.0000 C   0  0  0  0  0  0  0  0  0  0  0  0
   -1.9140    9.7578    0.0000 C   0  0  0  0  0  0  0  0  0  0  0  0
   -0.4140    9.7578    0.0000 C   0  0  0  0  0  0  0  0  0  0  0  0
    0.3360    8.4587    0.0000 C   0  0  0  0  0  0  0  0  0  0  0  0
    1.8360    8.4587    0.0000 N   0  0  0  0  0  0  0  0  0  0  0  0
    2.5860    9.7578    0.0000 C   0  0  0  0  0  0  0  0  0  0  0  0
    1.8360   11.0568    0.0000 O   0  0  0  0  0  0  0  0  0  0  0  0
    4.0860    9.7578    0.0000 C   0  0  0  0  0  0  0  0  0  0  0  0
    4.8360    8.4587    0.0000 O   0  0  0  0  0  0  0  0  0  0  0  0
    4.8360   11.0568    0.0000 C   0  0  0  0  0  0  0  0  0  0  0  0
    6.3360   11.0568    0.0000 C   0  0  0  0  0  0  0  0  0  0  0  0
    7.0860   12.3558    0.0000 C   0  0  0  0  0  0  0  0  0  0  0  0
    6.3360   13.6549    0.0000 C   0  0  0  0  0  0  0  0  0  0  0  0
    7.0860   14.9539    0.0000 C   0  0  0  0  0  0  0  0  0  0  0  0
    8.5860   14.9539    0.0000 C   0  0  0  0  0  0  0  0  0  0  0  0
    9.3360   13.6549    0.0000 C   0  0  0  0  0  0  0  0  0  0  0  0
    8.5860   12.3558    0.0000 C   0  0  0  0  0  0  0  0  0  0  0  0
    4.0860   12.3558    0.0000 C   0  0  0  0  0  0  0  0  0  0  0  0
    2.5860   12.3558    0.0000 O   0  0  0  0  0  0  0  0  0  0  0  0
    4.8360   13.6549    0.0000 O   0  0  0  0  0  0  0  0  0  0  0  0
   -0.4140    7.1597    0.0000 C   0  0  0  0  0  0  0  0  0  0  0  0
   -1.9140    7.1597    0.0000 C   0  0  0  0  0  0  0  0  0  0  0  0
  1  2  1  0
  2  3  1  0
  2  4  1  0
  2  5  1  0
  5  6  1  0
  6  7  1  0
  7  8  1  0
  8  9  2  0
  8 10  1  0
 10 11  1  0
 11 12  1  0
 12 13  2  0
 13 14  1  0
 14 15  2  0
 15 16  1  0
 16 17  2  0
 10 18  1  0
 18 19  1  0
 19 20  2  0
 19 21  1  0
 21 22  1  0
 22 23  1  0
 23 24  1  0
 24 25  1  0
 25 26  1  0
 26 27  1  0
 27 28  1  0
 28 29  1  0
  6 30  1  0
 30 31  2  0
 30 32  2  0
 30 33  1  0
 33 34  2  0
 34 35  1  0
 35 36  2  0
 36 37  1  0
 37 38  1  0
 38 39  2  0
 38 40  1  0
 40 41  1  0
 40 42  1  0
 42 43  1  0
 43 44  1  0
 44 45  2  0
 45 46  1  0
 46 47  2  0
 47 48  1  0
 48 49  2  0
 42 50  1  0
 50 51  2  0
 50 52  1  0
 36 53  1  0
 53 54  2  0
 17 12  1  0
 29 22  1  0
 54 33  1  0
 29 25  1  0
 49 44  1  0
M  END
>  <Title>  (8) 
idAAAHgen7

$$$$

     RDKit          2D

 36 40  0  0  0  0  0  0  0  0999 V2000
   -6.5278    4.5069    0.0000 C   0  0  0  0  0  0  0  0  0  0  0  0
   -6.4306    3.0101    0.0000 C   0  0  0  0  0  0  0  0  0  0  0  0
   -6.6984    1.5342    0.0000 C   0  0  0  0  0  0  0  0  0  0  0  0
   -7.9065    3.2779    0.0000 C   0  0  0  0  0  0  0  0  0  0  0  0
   -4.9547    2.7422    0.0000 N   0  0  0  0  0  0  0  0  0  0  0  0
   -4.4487    1.3301    0.0000 C   0  0  0  0  0  0  0  0  0  0  0  0
   -5.4186    0.1859    0.0000 O   0  0  0  0  0  0  0  0  0  0  0  0
   -2.9728    1.0623    0.0000 C   0  0  0  0  0  0  0  0  0  0  0  0
   -2.0911    2.2758    0.0000 C   0  0  0  0  0  0  0  0  0  0  0  0
   -0.5926    2.3431    0.0000 C   0  0  0  0  0  0  0  0  0  0  0  0
    0.3943    1.2135    0.0000 C   0  0  0  0  0  0  0  0  0  0  0  0
    1.2760    0.0000    0.0000 C   0  0  0  0  0  0  0  0  0  0  0  0
    0.3943   -1.2135    0.0000 C   0  0  0  0  0  0  0  0  0  0  0  0
   -1.0323   -0.7500    0.0000 C   0  0  0  0  0  0  0  0  0  0  0  0
   -2.5737   -0.3836    0.0000 C   0  0  0  0  0  0  0  0  0  0  0  0
   -1.0323    0.7500    0.0000 N   0  0  0  0  0  0  0  0  0  0  0  0
   -2.2458    1.6317    0.0000 C   0  0  0  0  0  0  0  0  0  0  0  0
   -2.0890    3.1235    0.0000 C   0  0  0  0  0  0  0  0  0  0  0  0
   -3.3025    4.0051    0.0000 C   0  0  0  0  0  0  0  0  0  0  0  0
   -3.1458    5.4969    0.0000 C   0  0  0  0  0  0  0  0  0  0  0  0
   -4.3593    6.3786    0.0000 C   0  0  0  0  0  0  0  0  0  0  0  0
   -5.7296    5.7685    0.0000 C   0  0  0  0  0  0  0  0  0  0  0  0
   -6.9431    6.6502    0.0000 C   0  0  0  0  0  0  0  0  0  0  0  0
   -6.7863    8.1420    0.0000 C   0  0  0  0  0  0  0  0  0  0  0  0
   -7.9999    9.0236    0.0000 C   0  0  0  0  0  0  0  0  0  0  0  0
   -9.3702    8.4135    0.0000 C   0  0  0  0  0  0  0  0  0  0  0  0
  -10.5837    9.2952    0.0000 C   0  0  0  0  0  0  0  0  0  0  0  0
  -10.4269   10.7870    0.0000 C   0  0  0  0  0  0  0  0  0  0  0  0
  -11.6404   11.6687    0.0000 C   0  0  0  0  0  0  0  0  0  0  0  0
  -13.0107   11.0586    0.0000 C   0  0  0  0  0  0  0  0  0  0  0  0
  -13.1675    9.5668    0.0000 C   0  0  0  0  0  0  0  0  0  0  0  0
  -11.9540    8.6851    0.0000 N   0  0  0  0  0  0  0  0  0  0  0  0
   -9.5270    6.9217    0.0000 C   0  0  0  0  0  0  0  0  0  0  0  0
   -8.3134    6.0401    0.0000 C   0  0  0  0  0  0  0  0  0  0  0  0
   -5.8864    4.2767    0.0000 C   0  0  0  0  0  0  0  0  0  0  0  0
   -4.6729    3.3950    0.0000 C   0  0  0  0  0  0  0  0  0  0  0  0
  1  2  1  0
  2  3  1  0
  2  4  1  0
  2  5  1  0
  5  6  1  0
  6  7  2  0
  6  8  1  0
  8  9  1  0
  9 10  1  0
 10 11  1  0
 11 12  1  0
 12 13  1  0
 13 14  1  0
 14 15  1  0
 14 16  1  0
 16 17  1  0
 17 18  1  0
 18 19  1  0
 19 20  2  0
 20 21  1  0
 21 22  2  0
 22 23  1  0
 23 24  2  0
 24 25  1  0
 25 26  2  0
 26 27  1  0
 27 28  2  0
 28 29  1  0
 29 30  2  0
 30 31  1  0
 31 32  2  0
 26 33  1  0
 33 34  2  0
 22 35  1  0
 35 36  2  0
 15  8  1  0
 36 19  1  0
 16 11  1  0
 34 23  1  0
 32 27  1  0
M  END
>  <Title>  (9) 
idAAAIgen7

$$$$

     RDKit          2D

 30 32  0  0  0  0  0  0  0  0999 V2000
    5.2500   -2.7990    0.0000 C   0  0  0  0  0  0  0  0  0  0  0  0
    5.2500   -1.2990    0.0000 C   0  0  0  0  0  0  0  0  0  0  0  0
    5.2500    0.2010    0.0000 C   0  0  0  0  0  0  0  0  0  0  0  0
    6.7500   -1.2990    0.0000 C   0  0  0  0  0  0  0  0  0  0  0  0
    3.7500   -1.2990    0.0000 O   0  0  0  0  0  0  0  0  0  0  0  0
    3.0000    0.0000    0.0000 C   0  0  0  0  0  0  0  0  0  0  0  0
    3.7500    1.2990    0.0000 O   0  0  0  0  0  0  0  0  0  0  0  0
    1.5000    0.0000    0.0000 N   0  0  0  0  0  0  0  0  0  0  0  0
    0.7500   -1.2990    0.0000 C   0  0  0  0  0  0  0  0  0  0  0  0
   -0.7500   -1.2990    0.0000 C   0  0  0  0  0  0  0  0  0  0  0  0
   -1.5000    0.0000    0.0000 N   0  0  0  0  0  0  0  0  0  0  0  0
   -3.0000    0.0000    0.0000 C   0  0  0  0  0  0  0  0  0  0  0  0
   -3.7500   -1.2990    0.0000 O   0  0  0  0  0  0  0  0  0  0  0  0
   -3.7500    1.2990    0.0000 C   0  0  0  0  0  0  0  0  0  0  0  0
   -5.2500    1.2990    0.0000 C   0  0  0  0  0  0  0  0  0  0  0  0
   -6.0000    2.5981    0.0000 C   0  0  0  0  0  0  0  0  0  0  0  0
   -7.5000    2.5981    0.0000 C   0  0  0  0  0  0  0  0  0  0  0  0
   -8.2500    1.2990    0.0000 C   0  0  0  0  0  0  0  0  0  0  0  0
   -9.7500    1.2990    0.0000 C   0  0  0  0  0  0  0  0  0  0  0  0
  -10.5000    0.0000    0.0000 O   0  0  0  0  0  0  0  0  0  0  0  0
  -10.5000    2.5981    0.0000 N   0  0  0  0  0  0  0  0  0  0  0  0
   -9.7500    3.8971    0.0000 C   0  0  0  0  0  0  0  0  0  0  0  0
  -10.5000    5.1962    0.0000 C   0  0  0  0  0  0  0  0  0  0  0  0
  -12.0000    5.1962    0.0000 O   0  0  0  0  0  0  0  0  0  0  0  0
  -12.7500    3.8971    0.0000 C   0  0  0  0  0  0  0  0  0  0  0  0
  -12.0000    2.5981    0.0000 C   0  0  0  0  0  0  0  0  0  0  0  0
   -7.5000    0.0000    0.0000 C   0  0  0  0  0  0  0  0  0  0  0  0
   -6.0000    0.0000    0.0000 C   0  0  0  0  0  0  0  0  0  0  0  0
   -0.7500    1.2990    0.0000 C   0  0  0  0  0  0  0  0  0  0  0  0
    0.7500    1.2990    0.0000 C   0  0  0  0  0  0  0  0  0  0  0  0
  1  2  1  0
  2  3  1  0
  2  4  1  0
  2  5  1  0
  5  6  1  0
  6  7  2  0
  6  8  1  0
  8  9  1  0
  9 10  1  0
 10 11  1  0
 11 12  1  0
 12 13  2  0
 12 14  1  0
 14 15  1  0
 15 16  2  0
 16 17  1  0
 17 18  2  0
 18 19  1  0
 19 20  2  0
 19 21  1  0
 21 22  1  0
 22 23  1  0
 23 24  1  0
 24 25  1  0
 25 26  1  0
 18 27  1  0
 27 28  2  0
 11 29  1  0
 29 30  1  0
 30  8  1  0
 28 15  1  0
 26 21  1  0
M  END
>  <Title>  (10) 
idAAAJgen7

$$$$

     RDKit          2D

 75 82  0  0  0  0  0  0  0  0999 V2000
   -1.4033    6.9044    0.0000 C   0  0  0  0  0  0  0  0  0  0  0  0
   -2.7242    6.1936    0.0000 C   0  0  0  0  0  0  0  0  0  0  0  0
   -4.0451    5.4828    0.0000 C   0  0  0  0  0  0  0  0  0  0  0  0
   -3.4350    7.5145    0.0000 C   0  0  0  0  0  0  0  0  0  0  0  0
   -2.0134    4.8727    0.0000 N   0  0  0  0  0  0  0  0  0  0  0  0
   -2.8019    3.5967    0.0000 C   0  0  0  0  0  0  0  0  0  0  0  0
   -4.2675    3.2775    0.0000 O   0  0  0  0  0  0  0  0  0  0  0  0
   -2.0911    2.2758    0.0000 C   0  0  0  0  0  0  0  0  0  0  0  0
   -0.5926    2.3431    0.0000 C   0  0  0  0  0  0  0  0  0  0  0  0
    0.3943    1.2135    0.0000 C   0  0  0  0  0  0  0  0  0  0  0  0
    1.2760    0.0000    0.0000 C   0  0  0  0  0  0  0  0  0  0  0  0
    0.3943   -1.2135    0.0000 C   0  0  0  0  0  0  0  0  0  0  0  0
   -1.0323   -0.7500    0.0000 C   0  0  0  0  0  0  0  0  0  0  0  0
   -2.5737   -0.3836    0.0000 C   0  0  0  0  0  0  0  0  0  0  0  0
   -2.9728    1.0623    0.0000 C   0  0  0  0  0  0  0  0  0  0  0  0
   -4.4487    1.3301    0.0000 C   0  0  0  0  0  0  0  0  0  0  0  0
   -5.2813    2.5778    0.0000 O   0  0  0  0  0  0  0  0  0  0  0  0
   -5.4186    0.1859    0.0000 N   0  0  0  0  0  0  0  0  0  0  0  0
   -6.8945    0.4537    0.0000 C   0  0  0  0  0  0  0  0  0  0  0  0
   -7.8644   -0.6905    0.0000 C   0  0  0  0  0  0  0  0  0  0  0  0
   -7.3584   -2.1026    0.0000 C   0  0  0  0  0  0  0  0  0  0  0  0
   -5.8825   -2.3704    0.0000 C   0  0  0  0  0  0  0  0  0  0  0  0
   -5.3765   -3.7825    0.0000 C   0  0  0  0  0  0  0  0  0  0  0  0
   -6.3464   -4.9267    0.0000 C   0  0  0  0  0  0  0  0  0  0  0  0
   -7.8223   -4.6589    0.0000 C   0  0  0  0  0  0  0  0  0  0  0  0
   -8.3283   -3.2468    0.0000 C   0  0  0  0  0  0  0  0  0  0  0  0
   -7.4005    1.8658    0.0000 C   0  0  0  0  0  0  0  0  0  0  0  0
   -6.4306    3.0101    0.0000 O   0  0  0  0  0  0  0  0  0  0  0  0
   -8.8764    2.1337    0.0000 N   0  0  0  0  0  0  0  0  0  0  0  0
   -9.8463    0.9894    0.0000 C   0  0  0  0  0  0  0  0  0  0  0  0
  -11.3221    1.2572    0.0000 C   0  0  0  0  0  0  0  0  0  0  0  0
  -11.8281    2.6693    0.0000 C   0  0  0  0  0  0  0  0  0  0  0  0
  -10.8582    3.8136    0.0000 C   0  0  0  0  0  0  0  0  0  0  0  0
  -11.3642    5.2256    0.0000 C   0  0  0  0  0  0  0  0  0  0  0  0
  -12.8401    5.4935    0.0000 C   0  0  0  0  0  0  0  0  0  0  0  0
  -13.8100    4.3492    0.0000 C   0  0  0  0  0  0  0  0  0  0  0  0
  -13.3040    2.9372    0.0000 C   0  0  0  0  0  0  0  0  0  0  0  0
   -9.3403   -0.4227    0.0000 C   0  0  0  0  0  0  0  0  0  0  0  0
   -8.6137   -0.7506    0.0000 O   0  0  0  0  0  0  0  0  0  0  0  0
  -10.3102   -1.5669    0.0000 N   0  0  0  0  0  0  0  0  0  0  0  0
  -11.7861   -1.2991    0.0000 C   0  0  0  0  0  0  0  0  0  0  0  0
  -12.7560   -2.4433    0.0000 C   0  0  0  0  0  0  0  0  0  0  0  0
  -14.2318   -2.1755    0.0000 C   0  0  0  0  0  0  0  0  0  0  0  0
  -15.2017   -3.3197    0.0000 C   0  0  0  0  0  0  0  0  0  0  0  0
  -16.6776   -3.0519    0.0000 C   0  0  0  0  0  0  0  0  0  0  0  0
  -17.1836   -1.6398    0.0000 C   0  0  0  0  0  0  0  0  0  0  0  0
  -16.2137   -0.4956    0.0000 C   0  0  0  0  0  0  0  0  0  0  0  0
  -14.7378   -0.7634    0.0000 C   0  0  0  0  0  0  0  0  0  0  0  0
  -12.2920    0.1130    0.0000 C   0  0  0  0  0  0  0  0  0  0  0  0
  -11.6278    1.4579    0.0000 O   0  0  0  0  0  0  0  0  0  0  0  0
  -13.7679    0.3808    0.0000 O   0  0  0  0  0  0  0  0  0  0  0  0
   -1.0323    0.7500    0.0000 C   0  0  0  0  0  0  0  0  0  0  0  0
   -2.2458    1.6317    0.0000 C   0  0  0  0  0  0  0  0  0  0  0  0
   -2.0890    3.1235    0.0000 C   0  0  0  0  0  0  0  0  0  0  0  0
   -0.7187    3.7336    0.0000 O   0  0  0  0  0  0  0  0  0  0  0  0
   -3.3025    4.0051    0.0000 C   0  0  0  0  0  0  0  0  0  0  0  0
   -3.1458    5.4969    0.0000 C   0  0  0  0  0  0  0  0  0  0  0  0
   -4.3593    6.3786    0.0000 C   0  0  0  0  0  0  0  0  0  0  0  0
   -4.2025    7.8704    0.0000 C   0  0  0  0  0  0  0  0  0  0  0  0
   -5.4160    8.7521    0.0000 C   0  0  0  0  0  0  0  0  0  0  0  0
   -6.7863    8.1420    0.0000 C   0  0  0  0  0  0  0  0  0  0  0  0
   -6.9431    6.6502    0.0000 C   0  0  0  0  0  0  0  0  0  0  0  0
   -5.7296    5.7685    0.0000 C   0  0  0  0  0  0  0  0  0  0  0  0
   -4.6729    3.3950    0.0000 N   0  0  0  0  0  0  0  0  0  0  0  0
   -5.8864    4.2767    0.0000 C   0  0  0  0  0  0  0  0  0  0  0  0
   -6.0952    5.7621    0.0000 O   0  0  0  0  0  0  0  0  0  0  0  0
   -7.2567    3.6666    0.0000 O   0  0  0  0  0  0  0  0  0  0  0  0
   -8.4702    4.5483    0.0000 C   0  0  0  0  0  0  0  0  0  0  0  0
   -8.4702    6.0483    0.0000 C   0  0  0  0  0  0  0  0  0  0  0  0
   -9.8968    6.5118    0.0000 O   0  0  0  0  0  0  0  0  0  0  0  0
  -10.7785    5.2983    0.0000 C   0  0  0  0  0  0  0  0  0  0  0  0
  -12.2051    4.8348    0.0000 O   0  0  0  0  0  0  0  0  0  0  0  0
  -12.2051    3.3348    0.0000 C   0  0  0  0  0  0  0  0  0  0  0  0
  -10.7785    2.8712    0.0000 C   0  0  0  0  0  0  0  0  0  0  0  0
   -9.8968    4.0848    0.0000 C   0  0  0  0  0  0  0  0  0  0  0  0
  1  2  1  0
  2  3  1  0
  2  4  1  0
  2  5  1  0
  5  6  1  0
  6  7  2  0
  6  8  1  0
  8  9  1  0
  9 10  1  0
 10 11  1  0
 11 12  1  0
 12 13  1  0
 13 14  1  0
 14 15  1  0
 15 16  1  0
 16 17  2  0
 16 18  1  0
 18 19  1  0
 19 20  1  0
 20 21  1  0
 21 22  2  0
 22 23  1  0
 23 24  2  0
 24 25  1  0
 25 26  2  0
 19 27  1  0
 27 28  2  0
 27 29  1  0
 29 30  1  0
 30 31  1  0
 31 32  1  0
 32 33  2  0
 33 34  1  0
 34 35  2  0
 35 36  1  0
 36 37  2  0
 30 38  1  0
 38 39  2  0
 38 40  1  0
 40 41  1  0
 41 42  1  0
 42 43  1  0
 43 44  2  0
 44 45  1  0
 45 46  2  0
 46 47  1  0
 47 48  2  0
 41 49  1  0
 49 50  2  0
 49 51  1  0
 13 52  1  0
 52 53  1  0
 53 54  1  0
 54 55  1  0
 54 56  1  0
 56 57  1  0
 57 58  1  0
 58 59  2  0
 59 60  1  0
 60 61  2  0
 61 62  1  0
 62 63  2  0
 56 64  1  0
 64 65  1  0
 65 66  2  0
 65 67  1  0
 67 68  1  0
 68 69  1  0
 69 70  1  0
 70 71  1  0
 71 72  1  0
 72 73  1  0
 73 74  1  0
 74 75  1  0
 15  8  1  0
 26 21  1  0
 37 32  1  0
 48 43  1  0
 63 58  1  0
 75 68  1  0
 52 10  1  0
 75 71  1  0
M  END
>  <Title>  (11) 
idAAAKgen7

$$$$

     RDKit          2D

 29 33  0  0  0  0  0  0  0  0999 V2000
    5.1102   -5.2419    0.0000 C   0  0  0  0  0  0  0  0  0  0  0  0
    3.9955   -4.2382    0.0000 C   0  0  0  0  0  0  0  0  0  0  0  0
    2.8808   -3.2345    0.0000 C   0  0  0  0  0  0  0  0  0  0  0  0
    4.9992   -3.1235    0.0000 C   0  0  0  0  0  0  0  0  0  0  0  0
    2.9918   -5.3529    0.0000 C   0  0  0  0  0  0  0  0  0  0  0  0
    3.3037   -6.8202    0.0000 C   0  0  0  0  0  0  0  0  0  0  0  0
    2.0046   -7.5702    0.0000 C   0  0  0  0  0  0  0  0  0  0  0  0
    3.1193   -8.5739    0.0000 C   0  0  0  0  0  0  0  0  0  0  0  0
    2.1156   -9.6886    0.0000 C   0  0  0  0  0  0  0  0  0  0  0  0
    4.1230   -7.4591    0.0000 C   0  0  0  0  0  0  0  0  0  0  0  0
    4.2340   -9.5776    0.0000 C   0  0  0  0  0  0  0  0  0  0  0  0
    1.3945   -8.9405    0.0000 C   0  0  0  0  0  0  0  0  0  0  0  0
   -0.0973   -8.7837    0.0000 C   0  0  0  0  0  0  0  0  0  0  0  0
   -0.4091   -7.3165    0.0000 C   0  0  0  0  0  0  0  0  0  0  0  0
    0.8899   -6.5665    0.0000 C   0  0  0  0  0  0  0  0  0  0  0  0
   -0.2248   -5.5628    0.0000 C   0  0  0  0  0  0  0  0  0  0  0  0
    1.5000   -5.1962    0.0000 C   0  0  0  0  0  0  0  0  0  0  0  0
    0.7500   -3.8971    0.0000 C   0  0  0  0  0  0  0  0  0  0  0  0
    1.5000   -2.5981    0.0000 C   0  0  0  0  0  0  0  0  0  0  0  0
    0.7500   -1.2990    0.0000 C   0  0  0  0  0  0  0  0  0  0  0  0
    1.5000    0.0000    0.0000 C   0  0  0  0  0  0  0  0  0  0  0  0
    0.7500    1.2990    0.0000 C   0  0  0  0  0  0  0  0  0  0  0  0
   -0.7500    1.2990    0.0000 C   0  0  0  0  0  0  0  0  0  0  0  0
   -1.5000    0.0000    0.0000 C   0  0  0  0  0  0  0  0  0  0  0  0
    1.7010   -0.7500    0.0000 C   0  0  0  0  0  0  0  0  0  0  0  0
    3.0000   -0.0000    0.0000 C   0  0  0  0  0  0  0  0  0  0  0  0
    2.2500    1.2990    0.0000 C   0  0  0  0  0  0  0  0  0  0  0  0
    2.2500   -1.2990    0.0000 C   0  0  0  0  0  0  0  0  0  0  0  0
   -0.7500   -1.2990    0.0000 C   0  0  0  0  0  0  0  0  0  0  0  0
  1  2  1  0
  2  3  1  0
  2  4  1  0
  2  5  1  0
  5  6  1  0
  6  7  1  0
  7  8  1  0
  8  9  1  0
  8 10  1  0
  8 11  1  0
  7 12  1  0
 12 13  1  0
 13 14  1  0
 14 15  1  0
 15 16  1  0
 15 17  1  0
 17 18  1  0
 18 19  1  0
 19 20  1  0
 20 21  1  0
 21 22  1  0
 22 23  1  0
 23 24  1  0
 24 25  1  0
 25 26  1  0
 26 27  1  0
 26 28  1  0
 24 29  1  0
 17  5  1  0
 28 20  1  0
 15  7  1  0
 29 20  1  0
 27 22  1  0
M  END
>  <Title>  (12) 
idAAALgen7

$$$$

     RDKit          2D

 63 68  0  0  0  0  0  0  0  0999 V2000
   -7.9140    5.6597    0.0000 C   0  0  0  0  0  0  0  0  0  0  0  0
   -7.9140    7.1597    0.0000 C   0  0  0  0  0  0  0  0  0  0  0  0
   -7.9140    8.6597    0.0000 C   0  0  0  0  0  0  0  0  0  0  0  0
   -9.4140    7.1597    0.0000 C   0  0  0  0  0  0  0  0  0  0  0  0
   -6.4140    7.1597    0.0000 C   0  0  0  0  0  0  0  0  0  0  0  0
   -5.6640    8.4587    0.0000 C   0  0  0  0  0  0  0  0  0  0  0  0
   -6.4140    9.7578    0.0000 N   0  0  0  0  0  0  0  0  0  0  0  0
   -5.6640   11.0568    0.0000 C   0  0  0  0  0  0  0  0  0  0  0  0
   -4.1640   11.0568    0.0000 O   0  0  0  0  0  0  0  0  0  0  0  0
   -6.4140   12.3558    0.0000 C   0  0  0  0  0  0  0  0  0  0  0  0
   -7.9140   12.3558    0.0000 C   0  0  0  0  0  0  0  0  0  0  0  0
   -8.6640   11.0568    0.0000 C   0  0  0  0  0  0  0  0  0  0  0  0
   -7.9140    9.7578    0.0000 C   0  0  0  0  0  0  0  0  0  0  0  0
   -8.6640    8.4587    0.0000 C   0  0  0  0  0  0  0  0  0  0  0  0
  -10.1640    8.4587    0.0000 C   0  0  0  0  0  0  0  0  0  0  0  0
  -10.9140    9.7578    0.0000 C   0  0  0  0  0  0  0  0  0  0  0  0
  -10.1640   11.0568    0.0000 C   0  0  0  0  0  0  0  0  0  0  0  0
   -5.6640   13.6549    0.0000 N   0  0  0  0  0  0  0  0  0  0  0  0
   -4.1640   13.6549    0.0000 C   0  0  0  0  0  0  0  0  0  0  0  0
   -3.4140   12.3558    0.0000 O   0  0  0  0  0  0  0  0  0  0  0  0
   -3.4140   14.9539    0.0000 O   0  0  0  0  0  0  0  0  0  0  0  0
   -1.9140   14.9539    0.0000 C   0  0  0  0  0  0  0  0  0  0  0  0
   -1.0323   13.7404    0.0000 C   0  0  0  0  0  0  0  0  0  0  0  0
    0.3943   14.2039    0.0000 O   0  0  0  0  0  0  0  0  0  0  0  0
    0.3943   15.7039    0.0000 C   0  0  0  0  0  0  0  0  0  0  0  0
    1.2760   16.9174    0.0000 O   0  0  0  0  0  0  0  0  0  0  0  0
    0.3943   18.1310    0.0000 C   0  0  0  0  0  0  0  0  0  0  0  0
   -1.0323   17.6674    0.0000 C   0  0  0  0  0  0  0  0  0  0  0  0
   -1.0323   16.1674    0.0000 C   0  0  0  0  0  0  0  0  0  0  0  0
   -4.1640    8.4587    0.0000 S   0  0  0  0  0  0  0  0  0  0  0  0
   -4.1640    6.9587    0.0000 O   0  0  0  0  0  0  0  0  0  0  0  0
   -4.1640    9.9587    0.0000 O   0  0  0  0  0  0  0  0  0  0  0  0
   -2.6640    8.4587    0.0000 C   0  0  0  0  0  0  0  0  0  0  0  0
   -1.9140    7.1597    0.0000 C   0  0  0  0  0  0  0  0  0  0  0  0
   -0.4140    7.1597    0.0000 C   0  0  0  0  0  0  0  0  0  0  0  0
    0.3360    8.4587    0.0000 C   0  0  0  0  0  0  0  0  0  0  0  0
    1.8360    8.4587    0.0000 N   0  0  0  0  0  0  0  0  0  0  0  0
    2.5860    7.1597    0.0000 C   0  0  0  0  0  0  0  0  0  0  0  0
    1.8360    5.8606    0.0000 O   0  0  0  0  0  0  0  0  0  0  0  0
    4.0860    7.1597    0.0000 C   0  0  0  0  0  0  0  0  0  0  0  0
    4.8360    5.8606    0.0000 C   0  0  0  0  0  0  0  0  0  0  0  0
    6.3360    5.8606    0.0000 C   0  0  0  0  0  0  0  0  0  0  0  0
    7.0860    4.5616    0.0000 C   0  0  0  0  0  0  0  0  0  0  0  0
    8.5860    4.5616    0.0000 C   0  0  0  0  0  0  0  0  0  0  0  0
    9.3360    5.8606    0.0000 C   0  0  0  0  0  0  0  0  0  0  0  0
    8.5860    7.1597    0.0000 C   0  0  0  0  0  0  0  0  0  0  0  0
    7.0860    7.1597    0.0000 C   0  0  0  0  0  0  0  0  0  0  0  0
    4.8360    8.4587    0.0000 C   0  0  0  0  0  0  0  0  0  0  0  0
    4.0860    9.7578    0.0000 O   0  0  0  0  0  0  0  0  0  0  0  0
    6.3360    8.4587    0.0000 N   0  0  0  0  0  0  0  0  0  0  0  0
    7.0860    9.7578    0.0000 C   0  0  0  0  0  0  0  0  0  0  0  0
    8.5860    9.7578    0.0000 C   0  0  0  0  0  0  0  0  0  0  0  0
    9.3360   11.0568    0.0000 C   0  0  0  0  0  0  0  0  0  0  0  0
   10.8360   11.0568    0.0000 C   0  0  0  0  0  0  0  0  0  0  0  0
   11.5860   12.3558    0.0000 C   0  0  0  0  0  0  0  0  0  0  0  0
   10.8360   13.6549    0.0000 C   0  0  0  0  0  0  0  0  0  0  0  0
    9.3360   13.6549    0.0000 C   0  0  0  0  0  0  0  0  0  0  0  0
    8.5860   12.3558    0.0000 C   0  0  0  0  0  0  0  0  0  0  0  0
    6.3360   11.0568    0.0000 C   0  0  0  0  0  0  0  0  0  0  0  0
    4.8360   11.0568    0.0000 O   0  0  0  0  0  0  0  0  0  0  0  0
    7.0860   12.3558    0.0000 O   0  0  0  0  0  0  0  0  0  0  0  0
   -0.4140    9.7578    0.0000 C   0  0  0  0  0  0  0  0  0  0  0  0
   -1.9140    9.7578    0.0000 C   0  0  0  0  0  0  0  0  0  0  0  0
  1  2  1  0
  2  3  1  0
  2  4  1  0
  2  5  1  0
  5  6  1  0
  6  7  1  0
  7  8  1  0
  8  9  2  0
  8 10  1  0
 10 11  1  0
 11 12  1  0
 12 13  2  0
 13 14  1  0
 14 15  2  0
 15 16  1  0
 16 17  2  0
 10 18  1  0
 18 19  1  0
 19 20  2  0
 19 21  1  0
 21 22  1  0
 22 23  1  0
 23 24  1  0
 24 25  1  0
 25 26  1  0
 26 27  1  0
 27 28  1  0
 28 29  1  0
  6 30  1  0
 30 31  2  0
 30 32  2  0
 30 33  1  0
 33 34  2  0
 34 35  1  0
 35 36  2  0
 36 37  1  0
 37 38  1  0
 38 39  2  0
 38 40  1  0
 40 41  1  0
 41 42  1  0
 42 43  2  0
 43 44  1  0
 44 45  2  0
 45 46  1  0
 46 47  2  0
 40 48  1  0
 48 49  2  0
 48 50  1  0
 50 51  1  0
 51 52  1  0
 52 53  1  0
 53 54  2  0
 54 55  1  0
 55 56  2  0
 56 57  1  0
 57 58  2  0
 51 59  1  0
 59 60  2  0
 59 61  1  0
 36 62  1  0
 62 63  2  0
 17 12  1  0
 29 22  1  0
 63 33  1  0
 29 25  1  0
 47 42  1  0
 58 53  1  0
M  END
>  <Title>  (13) 
idAAAMgen7

$$$$

     RDKit          2D

 27 28  0  0  0  0  0  0  0  0999 V2000
    5.2500   -2.7990    0.0000 C   0  0  0  0  0  0  0  0  0  0  0  0
    5.2500   -1.2990    0.0000 C   0  0  0  0  0  0  0  0  0  0  0  0
    5.2500    0.2010    0.0000 C   0  0  0  0  0  0  0  0  0  0  0  0
    6.7500   -1.2990    0.0000 C   0  0  0  0  0  0  0  0  0  0  0  0
    3.7500   -1.2990    0.0000 C   0  0  0  0  0  0  0  0  0  0  0  0
    3.0000    0.0000    0.0000 C   0  0  0  0  0  0  0  0  0  0  0  0
    3.7500    1.2990    0.0000 O   0  0  0  0  0  0  0  0  0  0  0  0
    1.5000    0.0000    0.0000 N   0  0  0  0  0  0  0  0  0  0  0  0
    0.7500   -1.2990    0.0000 C   0  0  0  0  0  0  0  0  0  0  0  0
   -0.7500   -1.2990    0.0000 C   0  0  0  0  0  0  0  0  0  0  0  0
   -1.5000    0.0000    0.0000 N   0  0  0  0  0  0  0  0  0  0  0  0
   -3.0000    0.0000    0.0000 C   0  0  0  0  0  0  0  0  0  0  0  0
   -3.7500   -1.2990    0.0000 O   0  0  0  0  0  0  0  0  0  0  0  0
   -3.7500    1.2990    0.0000 C   0  0  0  0  0  0  0  0  0  0  0  0
   -5.2500    1.2990    0.0000 C   0  0  0  0  0  0  0  0  0  0  0  0
   -6.0000    2.5981    0.0000 C   0  0  0  0  0  0  0  0  0  0  0  0
   -7.5000    2.5981    0.0000 C   0  0  0  0  0  0  0  0  0  0  0  0
   -8.2500    3.8971    0.0000 C   0  0  0  0  0  0  0  0  0  0  0  0
   -7.5000    5.1962    0.0000 O   0  0  0  0  0  0  0  0  0  0  0  0
   -9.7500    3.8971    0.0000 C   0  0  0  0  0  0  0  0  0  0  0  0
  -10.5000    5.1962    0.0000 C   0  0  0  0  0  0  0  0  0  0  0  0
  -12.0000    5.1962    0.0000 C   0  0  0  0  0  0  0  0  0  0  0  0
  -12.7500    3.8971    0.0000 C   0  0  0  0  0  0  0  0  0  0  0  0
  -12.0000    2.5981    0.0000 C   0  0  0  0  0  0  0  0  0  0  0  0
  -10.5000    2.5981    0.0000 C   0  0  0  0  0  0  0  0  0  0  0  0
   -0.7500    1.2990    0.0000 C   0  0  0  0  0  0  0  0  0  0  0  0
    0.7500    1.2990    0.0000 C   0  0  0  0  0  0  0  0  0  0  0  0
  1  2  1  0
  2  3  1  0
  2  4  1  0
  2  5  1  0
  5  6  1  0
  6  7  2  0
  6  8  1  0
  8  9  1  0
  9 10  1  0
 10 11  1  0
 11 12  1  0
 12 13  2  0
 12 14  1  0
 14 15  1  0
 15 16  1  0
 16 17  1  0
 17 18  1  0
 18 19  1  0
 18 20  1  0
 20 21  2  0
 21 22  1  0
 22 23  2  0
 23 24  1  0
 24 25  2  0
 11 26  1  0
 26 27  1  0
 27  8  1  0
 25 20  1  0
M  END
>  <Title>  (14) 
idAAANgen7

$$$$

     RDKit          2D

 31 33  0  0  0  0  0  0  0  0999 V2000
    5.4786   -2.7990    0.0000 C   0  0  0  0  0  0  0  0  0  0  0  0
    5.4786   -1.2990    0.0000 C   0  0  0  0  0  0  0  0  0  0  0  0
    5.4786    0.2010    0.0000 C   0  0  0  0  0  0  0  0  0  0  0  0
    6.9786   -1.2990    0.0000 C   0  0  0  0  0  0  0  0  0  0  0  0
    3.9786   -1.2990    0.0000 C   0  0  0  0  0  0  0  0  0  0  0  0
    3.2286   -0.0000    0.0000 C   0  0  0  0  0  0  0  0  0  0  0  0
    3.9786    1.2990    0.0000 O   0  0  0  0  0  0  0  0  0  0  0  0
    1.7286    0.0000    0.0000 N   0  0  0  0  0  0  0  0  0  0  0  0
    1.0777    1.3515    0.0000 C   0  0  0  0  0  0  0  0  0  0  0  0
   -0.3846    1.6852    0.0000 C   0  0  0  0  0  0  0  0  0  0  0  0
   -1.5574    0.7500    0.0000 C   0  0  0  0  0  0  0  0  0  0  0  0
   -1.5574   -0.7500    0.0000 N   0  0  0  0  0  0  0  0  0  0  0  0
   -2.9088   -1.4008    0.0000 C   0  0  0  0  0  0  0  0  0  0  0  0
   -3.0209   -2.8966    0.0000 O   0  0  0  0  0  0  0  0  0  0  0  0
   -4.1482   -0.5558    0.0000 C   0  0  0  0  0  0  0  0  0  0  0  0
   -4.0361    0.9400    0.0000 C   0  0  0  0  0  0  0  0  0  0  0  0
   -5.2755    1.7849    0.0000 C   0  0  0  0  0  0  0  0  0  0  0  0
   -6.6269    1.1341    0.0000 C   0  0  0  0  0  0  0  0  0  0  0  0
   -7.8663    1.9791    0.0000 S   0  0  0  0  0  0  0  0  0  0  0  0
   -7.0213    3.2185    0.0000 O   0  0  0  0  0  0  0  0  0  0  0  0
   -8.7113    0.7397    0.0000 O   0  0  0  0  0  0  0  0  0  0  0  0
   -9.1056    2.8241    0.0000 N   0  0  0  0  0  0  0  0  0  0  0  0
   -8.9935    4.3199    0.0000 C   0  0  0  0  0  0  0  0  0  0  0  0
  -10.2329    5.1649    0.0000 C   0  0  0  0  0  0  0  0  0  0  0  0
  -11.5844    4.5140    0.0000 O   0  0  0  0  0  0  0  0  0  0  0  0
  -11.6964    3.0182    0.0000 C   0  0  0  0  0  0  0  0  0  0  0  0
  -10.4571    2.1732    0.0000 C   0  0  0  0  0  0  0  0  0  0  0  0
   -6.7390   -0.3617    0.0000 C   0  0  0  0  0  0  0  0  0  0  0  0
   -5.4997   -1.2067    0.0000 C   0  0  0  0  0  0  0  0  0  0  0  0
   -0.3846   -1.6852    0.0000 C   0  0  0  0  0  0  0  0  0  0  0  0
    1.0777   -1.3515    0.0000 C   0  0  0  0  0  0  0  0  0  0  0  0
  1  2  1  0
  2  3  1  0
  2  4  1  0
  2  5  1  0
  5  6  1  0
  6  7  2  0
  6  8  1  0
  8  9  1  0
  9 10  1  0
 10 11  1  0
 11 12  1  0
 12 13  1  0
 13 14  2  0
 13 15  1  0
 15 16  2  0
 16 17  1  0
 17 18  2  0
 18 19  1  0
 19 20  2  0
 19 21  2  0
 19 22  1  0
 22 23  1  0
 23 24  1  0
 24 25  1  0
 25 26  1  0
 26 27  1  0
 18 28  1  0
 28 29  2  0
 12 30  1  0
 30 31  1  0
 31  8  1  0
 29 15  1  0
 27 22  1  0
M  END
>  <Title>  (15) 
idAAAOgen7

$$$$

     RDKit          2D

 55 59  0  0  0  0  0  0  0  0999 V2000
   -6.4140   12.3558    0.0000 C   0  0  0  0  0  0  0  0  0  0  0  0
   -5.6640   11.0568    0.0000 C   0  0  0  0  0  0  0  0  0  0  0  0
   -4.1640   11.0568    0.0000 C   0  0  0  0  0  0  0  0  0  0  0  0
   -6.4140    9.7578    0.0000 C   0  0  0  0  0  0  0  0  0  0  0  0
   -5.6640    8.4587    0.0000 N   0  0  0  0  0  0  0  0  0  0  0  0
   -6.4140    7.1597    0.0000 C   0  0  0  0  0  0  0  0  0  0  0  0
   -5.6640    5.8606    0.0000 C   0  0  0  0  0  0  0  0  0  0  0  0
   -4.1640    5.8606    0.0000 O   0  0  0  0  0  0  0  0  0  0  0  0
   -6.4140    4.5616    0.0000 C   0  0  0  0  0  0  0  0  0  0  0  0
   -7.9140    4.5616    0.0000 C   0  0  0  0  0  0  0  0  0  0  0  0
   -8.6640    5.8606    0.0000 C   0  0  0  0  0  0  0  0  0  0  0  0
   -7.9140    7.1597    0.0000 C   0  0  0  0  0  0  0  0  0  0  0  0
   -8.6640    8.4587    0.0000 C   0  0  0  0  0  0  0  0  0  0  0  0
  -10.1640    8.4587    0.0000 C   0  0  0  0  0  0  0  0  0  0  0  0
  -10.9140    7.1597    0.0000 C   0  0  0  0  0  0  0  0  0  0  0  0
  -10.1640    5.8606    0.0000 C   0  0  0  0  0  0  0  0  0  0  0  0
   -5.6640    3.2626    0.0000 N   0  0  0  0  0  0  0  0  0  0  0  0
   -4.1640    3.2626    0.0000 C   0  0  0  0  0  0  0  0  0  0  0  0
   -3.4140    4.5616    0.0000 O   0  0  0  0  0  0  0  0  0  0  0  0
   -3.4140    1.9635    0.0000 O   0  0  0  0  0  0  0  0  0  0  0  0
   -1.9140    1.9635    0.0000 C   0  0  0  0  0  0  0  0  0  0  0  0
   -1.0323    3.1771    0.0000 C   0  0  0  0  0  0  0  0  0  0  0  0
    0.3943    2.7135    0.0000 O   0  0  0  0  0  0  0  0  0  0  0  0
    0.3943    1.2135    0.0000 C   0  0  0  0  0  0  0  0  0  0  0  0
    1.2760    0.0000    0.0000 O   0  0  0  0  0  0  0  0  0  0  0  0
    0.3943   -1.2135    0.0000 O   0  0  0  0  0  0  0  0  0  0  0  0
   -1.0323   -0.7500    0.0000 C   0  0  0  0  0  0  0  0  0  0  0  0
   -1.0323    0.7500    0.0000 C   0  0  0  0  0  0  0  0  0  0  0  0
   -4.1640    8.4587    0.0000 S   0  0  0  0  0  0  0  0  0  0  0  0
   -4.1640    6.9587    0.0000 O   0  0  0  0  0  0  0  0  0  0  0  0
   -4.1640    9.9587    0.0000 O   0  0  0  0  0  0  0  0  0  0  0  0
   -2.6640    8.4587    0.0000 C   0  0  0  0  0  0  0  0  0  0  0  0
   -1.9140    7.1597    0.0000 C   0  0  0  0  0  0  0  0  0  0  0  0
   -0.4140    7.1597    0.0000 C   0  0  0  0  0  0  0  0  0  0  0  0
    0.3360    8.4587    0.0000 C   0  0  0  0  0  0  0  0  0  0  0  0
    1.8360    8.4587    0.0000 N   0  0  0  0  0  0  0  0  0  0  0  0
    2.5860    7.1597    0.0000 C   0  0  0  0  0  0  0  0  0  0  0  0
    1.8360    5.8606    0.0000 O   0  0  0  0  0  0  0  0  0  0  0  0
    4.0860    7.1597    0.0000 C   0  0  0  0  0  0  0  0  0  0  0  0
    4.8360    8.4587    0.0000 O   0  0  0  0  0  0  0  0  0  0  0  0
    4.8360    5.8606    0.0000 C   0  0  0  0  0  0  0  0  0  0  0  0
    4.0860    4.5616    0.0000 O   0  0  0  0  0  0  0  0  0  0  0  0
    6.3360    5.8606    0.0000 C   0  0  0  0  0  0  0  0  0  0  0  0
    7.0860    4.5616    0.0000 C   0  0  0  0  0  0  0  0  0  0  0  0
    8.5860    4.5616    0.0000 C   0  0  0  0  0  0  0  0  0  0  0  0
    9.3360    3.2626    0.0000 C   0  0  0  0  0  0  0  0  0  0  0  0
   10.8360    3.2626    0.0000 C   0  0  0  0  0  0  0  0  0  0  0  0
   11.5860    4.5616    0.0000 C   0  0  0  0  0  0  0  0  0  0  0  0
   10.8360    5.8606    0.0000 C   0  0  0  0  0  0  0  0  0  0  0  0
    9.3360    5.8606    0.0000 C   0  0  0  0  0  0  0  0  0  0  0  0
    7.0860    7.1597    0.0000 C   0  0  0  0  0  0  0  0  0  0  0  0
    6.3360    8.4587    0.0000 O   0  0  0  0  0  0  0  0  0  0  0  0
    8.5860    7.1597    0.0000 O   0  0  0  0  0  0  0  0  0  0  0  0
   -0.4140    9.7578    0.0000 C   0  0  0  0  0  0  0  0  0  0  0  0
   -1.9140    9.7578    0.0000 C   0  0  0  0  0  0  0  0  0  0  0  0
  1  2  1  0
  2  3  1  0
  2  4  1  0
  4  5  1  0
  5  6  1  0
  6  7  1  0
  7  8  1  0
  7  9  1  0
  9 10  1  0
 10 11  1  0
 11 12  2  0
 12 13  1  0
 13 14  2  0
 14 15  1  0
 15 16  2  0
  9 17  1  0
 17 18  1  0
 18 19  2  0
 18 20  1  0
 20 21  1  0
 21 22  1  0
 22 23  1  0
 23 24  1  0
 24 25  1  0
 25 26  1  0
 26 27  1  0
 27 28  1  0
  5 29  1  0
 29 30  2  0
 29 31  2  0
 29 32  1  0
 32 33  2  0
 33 34  1  0
 34 35  2  0
 35 36  1  0
 36 37  1  0
 37 38  2  0
 37 39  1  0
 39 40  1  0
 39 41  1  0
 41 42  1  0
 41 43  1  0
 43 44  1  0
 44 45  1  0
 45 46  2  0
 46 47  1  0
 47 48  2  0
 48 49  1  0
 49 50  2  0
 43 51  1  0
 51 52  2  0
 51 53  1  0
 35 54  1  0
 54 55  2  0
 16 11  1  0
 28 21  1  0
 55 32  1  0
 28 24  1  0
 50 45  1  0
M  END
>  <Title>  (16) 
idAAAPgen7

$$$$

     RDKit          2D

 63 68  0  0  0  0  0  0  0  0999 V2000
   -6.5278    4.5069    0.0000 C   0  0  0  0  0  0  0  0  0  0  0  0
   -6.4306    3.0101    0.0000 C   0  0  0  0  0  0  0  0  0  0  0  0
   -6.5165    1.5125    0.0000 C   0  0  0  0  0  0  0  0  0  0  0  0
   -7.9065    3.2779    0.0000 C   0  0  0  0  0  0  0  0  0  0  0  0
   -4.9547    2.7422    0.0000 N   0  0  0  0  0  0  0  0  0  0  0  0
   -4.4487    1.3301    0.0000 C   0  0  0  0  0  0  0  0  0  0  0  0
   -5.4186    0.1859    0.0000 O   0  0  0  0  0  0  0  0  0  0  0  0
   -2.9728    1.0623    0.0000 C   0  0  0  0  0  0  0  0  0  0  0  0
   -2.0911    2.2758    0.0000 C   0  0  0  0  0  0  0  0  0  0  0  0
   -0.5926    2.3431    0.0000 C   0  0  0  0  0  0  0  0  0  0  0  0
    0.3943    1.2135    0.0000 C   0  0  0  0  0  0  0  0  0  0  0  0
    1.2760    0.0000    0.0000 C   0  0  0  0  0  0  0  0  0  0  0  0
    0.3943   -1.2135    0.0000 C   0  0  0  0  0  0  0  0  0  0  0  0
   -1.0323   -0.7500    0.0000 C   0  0  0  0  0  0  0  0  0  0  0  0
   -2.5737   -0.3836    0.0000 C   0  0  0  0  0  0  0  0  0  0  0  0
   -1.0323    0.7500    0.0000 C   0  0  0  0  0  0  0  0  0  0  0  0
   -2.2458    1.6317    0.0000 C   0  0  0  0  0  0  0  0  0  0  0  0
   -3.7230    1.3713    0.0000 O   0  0  0  0  0  0  0  0  0  0  0  0
   -2.0890    3.1235    0.0000 N   0  0  0  0  0  0  0  0  0  0  0  0
   -3.3025    4.0051    0.0000 C   0  0  0  0  0  0  0  0  0  0  0  0
   -3.1458    5.4969    0.0000 C   0  0  0  0  0  0  0  0  0  0  0  0
   -4.3593    6.3786    0.0000 C   0  0  0  0  0  0  0  0  0  0  0  0
   -4.2025    7.8704    0.0000 C   0  0  0  0  0  0  0  0  0  0  0  0
   -5.4160    8.7521    0.0000 C   0  0  0  0  0  0  0  0  0  0  0  0
   -6.7863    8.1420    0.0000 C   0  0  0  0  0  0  0  0  0  0  0  0
   -6.9431    6.6502    0.0000 C   0  0  0  0  0  0  0  0  0  0  0  0
   -5.7296    5.7685    0.0000 C   0  0  0  0  0  0  0  0  0  0  0  0
   -4.6729    3.3950    0.0000 C   0  0  0  0  0  0  0  0  0  0  0  0
   -5.5118    2.1516    0.0000 O   0  0  0  0  0  0  0  0  0  0  0  0
   -5.8864    4.2767    0.0000 N   0  0  0  0  0  0  0  0  0  0  0  0
   -7.2567    3.6666    0.0000 C   0  0  0  0  0  0  0  0  0  0  0  0
   -8.4702    4.5483    0.0000 C   0  0  0  0  0  0  0  0  0  0  0  0
   -9.8406    3.9382    0.0000 C   0  0  0  0  0  0  0  0  0  0  0  0
  -11.0541    4.8199    0.0000 C   0  0  0  0  0  0  0  0  0  0  0  0
  -12.4244    4.2098    0.0000 C   0  0  0  0  0  0  0  0  0  0  0  0
  -12.5812    2.7180    0.0000 C   0  0  0  0  0  0  0  0  0  0  0  0
  -11.3677    1.8363    0.0000 C   0  0  0  0  0  0  0  0  0  0  0  0
   -9.9973    2.4464    0.0000 C   0  0  0  0  0  0  0  0  0  0  0  0
   -7.4135    2.1748    0.0000 C   0  0  0  0  0  0  0  0  0  0  0  0
   -6.3165    1.1518    0.0000 O   0  0  0  0  0  0  0  0  0  0  0  0
   -8.7838    1.5647    0.0000 N   0  0  0  0  0  0  0  0  0  0  0  0
   -8.9406    0.0729    0.0000 C   0  0  0  0  0  0  0  0  0  0  0  0
  -10.3109   -0.5372    0.0000 C   0  0  0  0  0  0  0  0  0  0  0  0
  -10.4677   -2.0290    0.0000 C   0  0  0  0  0  0  0  0  0  0  0  0
  -11.8380   -2.6391    0.0000 C   0  0  0  0  0  0  0  0  0  0  0  0
  -11.9948   -4.1308    0.0000 C   0  0  0  0  0  0  0  0  0  0  0  0
  -10.7813   -5.0125    0.0000 C   0  0  0  0  0  0  0  0  0  0  0  0
   -9.4110   -4.4024    0.0000 C   0  0  0  0  0  0  0  0  0  0  0  0
   -9.2542   -2.9106    0.0000 C   0  0  0  0  0  0  0  0  0  0  0  0
   -7.7271   -0.8087    0.0000 C   0  0  0  0  0  0  0  0  0  0  0  0
   -6.3568   -0.1986    0.0000 O   0  0  0  0  0  0  0  0  0  0  0  0
   -7.8839   -2.3005    0.0000 N   0  0  0  0  0  0  0  0  0  0  0  0
   -6.6704   -3.1822    0.0000 C   0  0  0  0  0  0  0  0  0  0  0  0
   -6.8271   -4.6740    0.0000 C   0  0  0  0  0  0  0  0  0  0  0  0
   -5.6136   -5.5557    0.0000 C   0  0  0  0  0  0  0  0  0  0  0  0
   -5.7704   -7.0474    0.0000 C   0  0  0  0  0  0  0  0  0  0  0  0
   -4.5569   -7.9291    0.0000 C   0  0  0  0  0  0  0  0  0  0  0  0
   -3.1866   -7.3190    0.0000 C   0  0  0  0  0  0  0  0  0  0  0  0
   -3.0298   -5.8272    0.0000 C   0  0  0  0  0  0  0  0  0  0  0  0
   -4.2433   -4.9456    0.0000 C   0  0  0  0  0  0  0  0  0  0  0  0
   -5.3000   -2.5721    0.0000 C   0  0  0  0  0  0  0  0  0  0  0  0
   -5.1432   -1.0803    0.0000 O   0  0  0  0  0  0  0  0  0  0  0  0
   -4.0865   -3.4538    0.0000 O   0  0  0  0  0  0  0  0  0  0  0  0
  1  2  1  0
  2  3  1  0
  2  4  1  0
  2  5  1  0
  5  6  1  0
  6  7  2  0
  6  8  1  0
  8  9  1  0
  9 10  1  0
 10 11  1  0
 11 12  1  0
 12 13  1  0
 13 14  1  0
 14 15  1  0
 14 16  1  0
 16 17  1  0
 17 18  2  0
 17 19  1  0
 19 20  1  0
 20 21  1  0
 21 22  1  0
 22 23  2  0
 23 24  1  0
 24 25  2  0
 25 26  1  0
 26 27  2  0
 20 28  1  0
 28 29  2  0
 28 30  1  0
 30 31  1  0
 31 32  1  0
 32 33  1  0
 33 34  2  0
 34 35  1  0
 35 36  2  0
 36 37  1  0
 37 38  2  0
 31 39  1  0
 39 40  2  0
 39 41  1  0
 41 42  1  0
 42 43  1  0
 43 44  1  0
 44 45  2  0
 45 46  1  0
 46 47  2  0
 47 48  1  0
 48 49  2  0
 42 50  1  0
 50 51  2  0
 50 52  1  0
 52 53  1  0
 53 54  1  0
 54 55  1  0
 55 56  2  0
 56 57  1  0
 57 58  2  0
 58 59  1  0
 59 60  2  0
 53 61  1  0
 61 62  2  0
 61 63  1  0
 15  8  1  0
 27 22  1  0
 38 33  1  0
 49 44  1  0
 60 55  1  0
 16 11  1  0
M  END
>  <Title>  (17) 
idAAAQgen7

$$$$

     RDKit          2D

 74 81  0  0  0  0  0  0  0  0999 V2000
   -1.2973    6.9460    0.0000 C   0  0  0  0  0  0  0  0  0  0  0  0
   -1.1640    5.8606    0.0000 C   0  0  0  0  0  0  0  0  0  0  0  0
   -1.1640    4.3606    0.0000 C   0  0  0  0  0  0  0  0  0  0  0  0
   -2.6640    5.8606    0.0000 C   0  0  0  0  0  0  0  0  0  0  0  0
    0.3360    5.8606    0.0000 C   0  0  0  0  0  0  0  0  0  0  0  0
    1.0860    7.1597    0.0000 C   0  0  0  0  0  0  0  0  0  0  0  0
    0.3360    8.4587    0.0000 N   0  0  0  0  0  0  0  0  0  0  0  0
   -1.1640    8.4587    0.0000 C   0  0  0  0  0  0  0  0  0  0  0  0
   -1.8221    7.5854    0.0000 O   0  0  0  0  0  0  0  0  0  0  0  0
   -1.9140    9.7578    0.0000 C   0  0  0  0  0  0  0  0  0  0  0  0
   -1.1640   11.0568    0.0000 C   0  0  0  0  0  0  0  0  0  0  0  0
    0.3360   11.0568    0.0000 C   0  0  0  0  0  0  0  0  0  0  0  0
    1.0860    9.7578    0.0000 C   0  0  0  0  0  0  0  0  0  0  0  0
    2.5860    9.7578    0.0000 C   0  0  0  0  0  0  0  0  0  0  0  0
    3.3360   11.0568    0.0000 C   0  0  0  0  0  0  0  0  0  0  0  0
    2.5860   12.3558    0.0000 C   0  0  0  0  0  0  0  0  0  0  0  0
    1.0860   12.3558    0.0000 C   0  0  0  0  0  0  0  0  0  0  0  0
   -3.4140    9.7578    0.0000 N   0  0  0  0  0  0  0  0  0  0  0  0
   -4.1640    8.4587    0.0000 C   0  0  0  0  0  0  0  0  0  0  0  0
   -3.4140    7.1597    0.0000 O   0  0  0  0  0  0  0  0  0  0  0  0
   -5.6640    8.4587    0.0000 C   0  0  0  0  0  0  0  0  0  0  0  0
   -6.4140    9.7578    0.0000 C   0  0  0  0  0  0  0  0  0  0  0  0
   -5.6640   11.0568    0.0000 C   0  0  0  0  0  0  0  0  0  0  0  0
   -4.1640   11.0568    0.0000 C   0  0  0  0  0  0  0  0  0  0  0  0
   -3.4140   12.3558    0.0000 C   0  0  0  0  0  0  0  0  0  0  0  0
   -4.1640   13.6549    0.0000 C   0  0  0  0  0  0  0  0  0  0  0  0
   -5.6640   13.6549    0.0000 C   0  0  0  0  0  0  0  0  0  0  0  0
   -6.4140   12.3558    0.0000 C   0  0  0  0  0  0  0  0  0  0  0  0
   -6.4140    7.1597    0.0000 N   0  0  0  0  0  0  0  0  0  0  0  0
   -5.6640    5.8606    0.0000 C   0  0  0  0  0  0  0  0  0  0  0  0
   -4.1640    5.8606    0.0000 O   0  0  0  0  0  0  0  0  0  0  0  0
   -6.4140    4.5616    0.0000 C   0  0  0  0  0  0  0  0  0  0  0  0
   -7.9140    4.5616    0.0000 C   0  0  0  0  0  0  0  0  0  0  0  0
   -8.6640    5.8606    0.0000 C   0  0  0  0  0  0  0  0  0  0  0  0
   -7.9140    7.1597    0.0000 C   0  0  0  0  0  0  0  0  0  0  0  0
   -8.6640    8.4587    0.0000 C   0  0  0  0  0  0  0  0  0  0  0  0
  -10.1640    8.4587    0.0000 C   0  0  0  0  0  0  0  0  0  0  0  0
  -10.9140    7.1597    0.0000 C   0  0  0  0  0  0  0  0  0  0  0  0
  -10.1640    5.8606    0.0000 C   0  0  0  0  0  0  0  0  0  0  0  0
   -5.6640    3.2626    0.0000 N   0  0  0  0  0  0  0  0  0  0  0  0
   -4.1640    3.2626    0.0000 C   0  0  0  0  0  0  0  0  0  0  0  0
   -3.4140    4.5616    0.0000 O   0  0  0  0  0  0  0  0  0  0  0  0
   -3.4140    1.9635    0.0000 O   0  0  0  0  0  0  0  0  0  0  0  0
   -1.9140    1.9635    0.0000 C   0  0  0  0  0  0  0  0  0  0  0  0
   -1.0323    3.1771    0.0000 C   0  0  0  0  0  0  0  0  0  0  0  0
    0.3943    2.7135    0.0000 O   0  0  0  0  0  0  0  0  0  0  0  0
    0.3943    1.2135    0.0000 C   0  0  0  0  0  0  0  0  0  0  0  0
    1.2760    0.0000    0.0000 O   0  0  0  0  0  0  0  0  0  0  0  0
    0.3943   -1.2135    0.0000 C   0  0  0  0  0  0  0  0  0  0  0  0
   -1.0323   -0.7500    0.0000 C   0  0  0  0  0  0  0  0  0  0  0  0
   -1.0323    0.7500    0.0000 C   0  0  0  0  0  0  0  0  0  0  0  0
    2.5860    7.1597    0.0000 S   0  0  0  0  0  0  0  0  0  0  0  0
    2.5860    8.6597    0.0000 O   0  0  0  0  0  0  0  0  0  0  0  0
    2.5860    5.6597    0.0000 O   0  0  0  0  0  0  0  0  0  0  0  0
    4.0860    7.1597    0.0000 C   0  0  0  0  0  0  0  0  0  0  0  0
    4.8360    8.4587    0.0000 C   0  0  0  0  0  0  0  0  0  0  0  0
    6.3360    8.4587    0.0000 C   0  0  0  0  0  0  0  0  0  0  0  0
    7.0860    7.1597    0.0000 C   0  0  0  0  0  0  0  0  0  0  0  0
    8.5860    7.1597    0.0000 N   0  0  0  0  0  0  0  0  0  0  0  0
    9.3360    8.4587    0.0000 C   0  0  0  0  0  0  0  0  0  0  0  0
    8.5860    9.7578    0.0000 O   0  0  0  0  0  0  0  0  0  0  0  0
   10.8360    8.4587    0.0000 C   0  0  0  0  0  0  0  0  0  0  0  0
   11.7177    7.2452    0.0000 C   0  0  0  0  0  0  0  0  0  0  0  0
   13.1443    7.7087    0.0000 C   0  0  0  0  0  0  0  0  0  0  0  0
   13.1443    9.2087    0.0000 C   0  0  0  0  0  0  0  0  0  0  0  0
   14.3578   10.0904    0.0000 C   0  0  0  0  0  0  0  0  0  0  0  0
   14.2010   11.5822    0.0000 C   0  0  0  0  0  0  0  0  0  0  0  0
   15.4146   12.4639    0.0000 C   0  0  0  0  0  0  0  0  0  0  0  0
   16.7849   11.8537    0.0000 C   0  0  0  0  0  0  0  0  0  0  0  0
   16.9417   10.3620    0.0000 C   0  0  0  0  0  0  0  0  0  0  0  0
   15.7281    9.4803    0.0000 C   0  0  0  0  0  0  0  0  0  0  0  0
   11.7177    9.6722    0.0000 O   0  0  0  0  0  0  0  0  0  0  0  0
    6.3360    5.8606    0.0000 C   0  0  0  0  0  0  0  0  0  0  0  0
    4.8360    5.8606    0.0000 C   0  0  0  0  0  0  0  0  0  0  0  0
  1  2  1  0
  2  3  1  0
  2  4  1  0
  2  5  1  0
  5  6  1  0
  6  7  1  0
  7  8  1  0
  8  9  2  0
  8 10  1  0
 10 11  1  0
 11 12  1  0
 12 13  2  0
 13 14  1  0
 14 15  2  0
 15 16  1  0
 16 17  2  0
 10 18  1  0
 18 19  1  0
 19 20  2  0
 19 21  1  0
 21 22  1  0
 22 23  1  0
 23 24  2  0
 24 25  1  0
 25 26  2  0
 26 27  1  0
 27 28  2  0
 21 29  1  0
 29 30  1  0
 30 31  2  0
 30 32  1  0
 32 33  1  0
 33 34  1  0
 34 35  2  0
 35 36  1  0
 36 37  2  0
 37 38  1  0
 38 39  2  0
 32 40  1  0
 40 41  1  0
 41 42  2  0
 41 43  1  0
 43 44  1  0
 44 45  1  0
 45 46  1  0
 46 47  1  0
 47 48  1  0
 48 49  1  0
 49 50  1  0
 50 51  1  0
  6 52  1  0
 52 53  2  0
 52 54  2  0
 52 55  1  0
 55 56  2  0
 56 57  1  0
 57 58  2  0
 58 59  1  0
 59 60  1  0
 60 61  2  0
 60 62  1  0
 62 63  2  0
 63 64  1  0
 64 65  2  0
 65 66  1  0
 66 67  2  0
 67 68  1  0
 68 69  2  0
 69 70  1  0
 70 71  2  0
 65 72  1  0
 58 73  1  0
 73 74  2  0
 17 12  1  0
 28 23  1  0
 39 34  1  0
 51 44  1  0
 74 55  1  0
 51 47  1  0
 72 62  1  0
 71 66  1  0
M  END
>  <Title>  (18) 
idAAARgen7

$$$$

     RDKit          2D

 75 82  0  0  0  0  0  0  0  0999 V2000
   -1.4033    6.9044    0.0000 C   0  0  0  0  0  0  0  0  0  0  0  0
   -2.7242    6.1936    0.0000 C   0  0  0  0  0  0  0  0  0  0  0  0
   -4.0451    5.4828    0.0000 C   0  0  0  0  0  0  0  0  0  0  0  0
   -3.4350    7.5145    0.0000 C   0  0  0  0  0  0  0  0  0  0  0  0
   -2.0134    4.8727    0.0000 N   0  0  0  0  0  0  0  0  0  0  0  0
   -2.8019    3.5967    0.0000 C   0  0  0  0  0  0  0  0  0  0  0  0
   -4.2675    3.2775    0.0000 O   0  0  0  0  0  0  0  0  0  0  0  0
   -2.0911    2.2758    0.0000 C   0  0  0  0  0  0  0  0  0  0  0  0
   -0.5926    2.3431    0.0000 C   0  0  0  0  0  0  0  0  0  0  0  0
    0.3943    1.2135    0.0000 C   0  0  0  0  0  0  0  0  0  0  0  0
    1.2760    0.0000    0.0000 C   0  0  0  0  0  0  0  0  0  0  0  0
    0.3943   -1.2135    0.0000 C   0  0  0  0  0  0  0  0  0  0  0  0
   -1.0323   -0.7500    0.0000 C   0  0  0  0  0  0  0  0  0  0  0  0
   -2.5737   -0.3836    0.0000 C   0  0  0  0  0  0  0  0  0  0  0  0
   -2.9728    1.0623    0.0000 C   0  0  0  0  0  0  0  0  0  0  0  0
   -4.4487    1.3301    0.0000 C   0  0  0  0  0  0  0  0  0  0  0  0
   -5.2813    2.5778    0.0000 O   0  0  0  0  0  0  0  0  0  0  0  0
   -5.4186    0.1859    0.0000 N   0  0  0  0  0  0  0  0  0  0  0  0
   -6.8945    0.4537    0.0000 C   0  0  0  0  0  0  0  0  0  0  0  0
   -7.8644   -0.6905    0.0000 C   0  0  0  0  0  0  0  0  0  0  0  0
   -9.3403   -0.4227    0.0000 C   0  0  0  0  0  0  0  0  0  0  0  0
   -9.8463    0.9894    0.0000 C   0  0  0  0  0  0  0  0  0  0  0  0
  -11.3221    1.2572    0.0000 C   0  0  0  0  0  0  0  0  0  0  0  0
  -12.2920    0.1130    0.0000 C   0  0  0  0  0  0  0  0  0  0  0  0
  -11.7861   -1.2991    0.0000 C   0  0  0  0  0  0  0  0  0  0  0  0
  -10.3102   -1.5669    0.0000 C   0  0  0  0  0  0  0  0  0  0  0  0
   -7.4005    1.8658    0.0000 C   0  0  0  0  0  0  0  0  0  0  0  0
   -6.4306    3.0101    0.0000 O   0  0  0  0  0  0  0  0  0  0  0  0
   -8.8764    2.1337    0.0000 N   0  0  0  0  0  0  0  0  0  0  0  0
   -9.3823    3.5457    0.0000 C   0  0  0  0  0  0  0  0  0  0  0  0
  -10.8582    3.8136    0.0000 C   0  0  0  0  0  0  0  0  0  0  0  0
  -11.3642    5.2256    0.0000 C   0  0  0  0  0  0  0  0  0  0  0  0
  -10.3943    6.3699    0.0000 C   0  0  0  0  0  0  0  0  0  0  0  0
  -10.9003    7.7820    0.0000 C   0  0  0  0  0  0  0  0  0  0  0  0
  -12.3762    8.0498    0.0000 C   0  0  0  0  0  0  0  0  0  0  0  0
  -13.3461    6.9056    0.0000 C   0  0  0  0  0  0  0  0  0  0  0  0
  -12.8401    5.4935    0.0000 C   0  0  0  0  0  0  0  0  0  0  0  0
   -8.4125    4.6900    0.0000 C   0  0  0  0  0  0  0  0  0  0  0  0
   -6.9366    4.4221    0.0000 O   0  0  0  0  0  0  0  0  0  0  0  0
   -8.9184    6.1021    0.0000 O   0  0  0  0  0  0  0  0  0  0  0  0
   -1.0323    0.7500    0.0000 C   0  0  0  0  0  0  0  0  0  0  0  0
   -2.2458    1.6317    0.0000 C   0  0  0  0  0  0  0  0  0  0  0  0
   -2.0890    3.1235    0.0000 C   0  0  0  0  0  0  0  0  0  0  0  0
   -0.7187    3.7336    0.0000 O   0  0  0  0  0  0  0  0  0  0  0  0
   -3.3025    4.0051    0.0000 C   0  0  0  0  0  0  0  0  0  0  0  0
   -3.1458    5.4969    0.0000 C   0  0  0  0  0  0  0  0  0  0  0  0
   -4.3593    6.3786    0.0000 C   0  0  0  0  0  0  0  0  0  0  0  0
   -4.2025    7.8704    0.0000 C   0  0  0  0  0  0  0  0  0  0  0  0
   -5.4160    8.7521    0.0000 C   0  0  0  0  0  0  0  0  0  0  0  0
   -6.7863    8.1420    0.0000 C   0  0  0  0  0  0  0  0  0  0  0  0
   -6.9431    6.6502    0.0000 C   0  0  0  0  0  0  0  0  0  0  0  0
   -5.7296    5.7685    0.0000 C   0  0  0  0  0  0  0  0  0  0  0  0
   -4.6729    3.3950    0.0000 N   0  0  0  0  0  0  0  0  0  0  0  0
   -5.8864    4.2767    0.0000 C   0  0  0  0  0  0  0  0  0  0  0  0
   -6.0952    5.7621    0.0000 O   0  0  0  0  0  0  0  0  0  0  0  0
   -7.2567    3.6666    0.0000 C   0  0  0  0  0  0  0  0  0  0  0  0
   -8.4702    4.5483    0.0000 C   0  0  0  0  0  0  0  0  0  0  0  0
   -9.8406    3.9382    0.0000 C   0  0  0  0  0  0  0  0  0  0  0  0
  -11.0541    4.8199    0.0000 C   0  0  0  0  0  0  0  0  0  0  0  0
  -12.4244    4.2098    0.0000 C   0  0  0  0  0  0  0  0  0  0  0  0
  -12.5812    2.7180    0.0000 C   0  0  0  0  0  0  0  0  0  0  0  0
  -11.3677    1.8363    0.0000 C   0  0  0  0  0  0  0  0  0  0  0  0
   -9.9973    2.4464    0.0000 C   0  0  0  0  0  0  0  0  0  0  0  0
   -7.4135    2.1748    0.0000 N   0  0  0  0  0  0  0  0  0  0  0  0
   -8.7838    1.5647    0.0000 C   0  0  0  0  0  0  0  0  0  0  0  0
  -10.1746    2.1266    0.0000 O   0  0  0  0  0  0  0  0  0  0  0  0
   -8.9406    0.0729    0.0000 O   0  0  0  0  0  0  0  0  0  0  0  0
  -10.3109   -0.5372    0.0000 C   0  0  0  0  0  0  0  0  0  0  0  0
  -11.6100    0.2128    0.0000 C   0  0  0  0  0  0  0  0  0  0  0  0
  -12.7247   -0.7909    0.0000 O   0  0  0  0  0  0  0  0  0  0  0  0
  -12.1146   -2.1612    0.0000 C   0  0  0  0  0  0  0  0  0  0  0  0
  -12.4264   -3.6284    0.0000 O   0  0  0  0  0  0  0  0  0  0  0  0
  -11.1274   -4.3784    0.0000 C   0  0  0  0  0  0  0  0  0  0  0  0
  -10.0127   -3.3747    0.0000 C   0  0  0  0  0  0  0  0  0  0  0  0
  -10.6228   -2.0044    0.0000 C   0  0  0  0  0  0  0  0  0  0  0  0
  1  2  1  0
  2  3  1  0
  2  4  1  0
  2  5  1  0
  5  6  1  0
  6  7  2  0
  6  8  1  0
  8  9  1  0
  9 10  1  0
 10 11  1  0
 11 12  1  0
 12 13  1  0
 13 14  1  0
 14 15  1  0
 15 16  1  0
 16 17  2  0
 16 18  1  0
 18 19  1  0
 19 20  1  0
 20 21  1  0
 21 22  2  0
 22 23  1  0
 23 24  2  0
 24 25  1  0
 25 26  2  0
 19 27  1  0
 27 28  2  0
 27 29  1  0
 29 30  1  0
 30 31  1  0
 31 32  1  0
 32 33  2  0
 33 34  1  0
 34 35  2  0
 35 36  1  0
 36 37  2  0
 30 38  1  0
 38 39  2  0
 38 40  1  0
 13 41  1  0
 41 42  1  0
 42 43  1  0
 43 44  1  0
 43 45  1  0
 45 46  1  0
 46 47  1  0
 47 48  2  0
 48 49  1  0
 49 50  2  0
 50 51  1  0
 51 52  2  0
 45 53  1  0
 53 54  1  0
 54 55  2  0
 54 56  1  0
 56 57  1  0
 57 58  1  0
 58 59  2  0
 59 60  1  0
 60 61  2  0
 61 62  1  0
 62 63  2  0
 56 64  1  0
 64 65  1  0
 65 66  2  0
 65 67  1  0
 67 68  1  0
 68 69  1  0
 69 70  1  0
 70 71  1  0
 71 72  1  0
 72 73  1  0
 73 74  1  0
 74 75  1  0
 15  8  1  0
 26 21  1  0
 37 32  1  0
 52 47  1  0
 63 58  1  0
 75 68  1  0
 41 10  1  0
 75 71  1  0
M  END
>  <Title>  (19) 
idAAASgen7

$$$$

     RDKit          2D

 68 76  0  0  0  0  0  0  0  0999 V2000
   -1.9605    4.6312    0.0000 O   0  0  0  0  0  0  0  0  0  0  0  0
   -3.2463    3.8586    0.0000 C   0  0  0  0  0  0  0  0  0  0  0  0
   -3.4031    2.3668    0.0000 N   0  0  0  0  0  0  0  0  0  0  0  0
   -2.1895    1.4851    0.0000 C   0  0  0  0  0  0  0  0  0  0  0  0
   -0.8192    2.0952    0.0000 C   0  0  0  0  0  0  0  0  0  0  0  0
    0.3943    1.2135    0.0000 C   0  0  0  0  0  0  0  0  0  0  0  0
    1.2760    0.0000    0.0000 C   0  0  0  0  0  0  0  0  0  0  0  0
    0.3943   -1.2135    0.0000 C   0  0  0  0  0  0  0  0  0  0  0  0
   -1.0323   -0.7500    0.0000 C   0  0  0  0  0  0  0  0  0  0  0  0
   -2.3463   -0.0067    0.0000 C   0  0  0  0  0  0  0  0  0  0  0  0
   -1.0323    0.7500    0.0000 N   0  0  0  0  0  0  0  0  0  0  0  0
   -2.2458    1.6317    0.0000 C   0  0  0  0  0  0  0  0  0  0  0  0
   -2.0890    3.1235    0.0000 C   0  0  0  0  0  0  0  0  0  0  0  0
   -3.3025    4.0051    0.0000 C   0  0  0  0  0  0  0  0  0  0  0  0
   -3.1458    5.4969    0.0000 C   0  0  0  0  0  0  0  0  0  0  0  0
   -4.3593    6.3786    0.0000 C   0  0  0  0  0  0  0  0  0  0  0  0
   -5.7296    5.7685    0.0000 C   0  0  0  0  0  0  0  0  0  0  0  0
   -6.9431    6.6502    0.0000 C   0  0  0  0  0  0  0  0  0  0  0  0
   -6.7863    8.1420    0.0000 C   0  0  0  0  0  0  0  0  0  0  0  0
   -7.9999    9.0236    0.0000 C   0  0  0  0  0  0  0  0  0  0  0  0
   -9.3702    8.4135    0.0000 C   0  0  0  0  0  0  0  0  0  0  0  0
   -9.5270    6.9217    0.0000 C   0  0  0  0  0  0  0  0  0  0  0  0
   -8.3134    6.0401    0.0000 N   0  0  0  0  0  0  0  0  0  0  0  0
   -5.8864    4.2767    0.0000 C   0  0  0  0  0  0  0  0  0  0  0  0
   -4.6729    3.3950    0.0000 C   0  0  0  0  0  0  0  0  0  0  0  0
   -4.4598    4.7402    0.0000 C   0  0  0  0  0  0  0  0  0  0  0  0
   -4.3030    6.2320    0.0000 C   0  0  0  0  0  0  0  0  0  0  0  0
   -5.5165    7.1137    0.0000 C   0  0  0  0  0  0  0  0  0  0  0  0
   -6.8869    6.5036    0.0000 C   0  0  0  0  0  0  0  0  0  0  0  0
   -7.0436    5.0118    0.0000 C   0  0  0  0  0  0  0  0  0  0  0  0
   -5.8301    4.1301    0.0000 C   0  0  0  0  0  0  0  0  0  0  0  0
   -5.6733    5.6219    0.0000 C   0  0  0  0  0  0  0  0  0  0  0  0
   -4.4598    4.7402    0.0000 C   0  0  0  0  0  0  0  0  0  0  0  0
   -3.2778    5.6638    0.0000 O   0  0  0  0  0  0  0  0  0  0  0  0
   -4.6166    3.2485    0.0000 N   0  0  0  0  0  0  0  0  0  0  0  0
   -3.4031    2.3668    0.0000 C   0  0  0  0  0  0  0  0  0  0  0  0
   -3.5599    0.8750    0.0000 C   0  0  0  0  0  0  0  0  0  0  0  0
   -2.3463   -0.0067    0.0000 C   0  0  0  0  0  0  0  0  0  0  0  0
   -2.5031   -1.4985    0.0000 C   0  0  0  0  0  0  0  0  0  0  0  0
   -1.2896   -2.3801    0.0000 C   0  0  0  0  0  0  0  0  0  0  0  0
    0.0807   -1.7700    0.0000 C   0  0  0  0  0  0  0  0  0  0  0  0
    0.2375   -0.2783    0.0000 C   0  0  0  0  0  0  0  0  0  0  0  0
   -0.9760    0.6034    0.0000 C   0  0  0  0  0  0  0  0  0  0  0  0
   -2.0328    2.9769    0.0000 C   0  0  0  0  0  0  0  0  0  0  0  0
   -1.6953    4.4384    0.0000 O   0  0  0  0  0  0  0  0  0  0  0  0
   -0.8192    2.0952    0.0000 N   0  0  0  0  0  0  0  0  0  0  0  0
    0.5511    2.7053    0.0000 C   0  0  0  0  0  0  0  0  0  0  0  0
    1.7646    1.8236    0.0000 C   0  0  0  0  0  0  0  0  0  0  0  0
    3.1349    2.4337    0.0000 C   0  0  0  0  0  0  0  0  0  0  0  0
    4.3485    1.5521    0.0000 C   0  0  0  0  0  0  0  0  0  0  0  0
    5.7188    2.1622    0.0000 C   0  0  0  0  0  0  0  0  0  0  0  0
    5.8756    3.6539    0.0000 C   0  0  0  0  0  0  0  0  0  0  0  0
    4.6620    4.5356    0.0000 C   0  0  0  0  0  0  0  0  0  0  0  0
    3.2917    3.9255    0.0000 C   0  0  0  0  0  0  0  0  0  0  0  0
    0.7079    4.1971    0.0000 C   0  0  0  0  0  0  0  0  0  0  0  0
   -0.5056    5.0788    0.0000 O   0  0  0  0  0  0  0  0  0  0  0  0
    2.0782    4.8072    0.0000 N   0  0  0  0  0  0  0  0  0  0  0  0
    2.2350    6.2990    0.0000 C   0  0  0  0  0  0  0  0  0  0  0  0
    3.6053    6.9091    0.0000 C   0  0  0  0  0  0  0  0  0  0  0  0
    3.7621    8.4009    0.0000 C   0  0  0  0  0  0  0  0  0  0  0  0
    5.1324    9.0110    0.0000 C   0  0  0  0  0  0  0  0  0  0  0  0
    5.2892   10.5028    0.0000 C   0  0  0  0  0  0  0  0  0  0  0  0
    4.0757   11.3844    0.0000 C   0  0  0  0  0  0  0  0  0  0  0  0
    2.7054   10.7743    0.0000 C   0  0  0  0  0  0  0  0  0  0  0  0
    2.5486    9.2825    0.0000 C   0  0  0  0  0  0  0  0  0  0  0  0
    1.0215    7.1807    0.0000 C   0  0  0  0  0  0  0  0  0  0  0  0
   -0.3488    6.5706    0.0000 O   0  0  0  0  0  0  0  0  0  0  0  0
    1.1783    8.6724    0.0000 O   0  0  0  0  0  0  0  0  0  0  0  0
  1  2  2  0
  2  3  1  0
  3  4  1  0
  4  5  1  0
  5  6  1  0
  6  7  1  0
  7  8  1  0
  8  9  1  0
  9 10  1  0
  9 11  1  0
 11 12  1  0
 12 13  1  0
 13 14  1  0
 14 15  2  0
 15 16  1  0
 16 17  2  0
 17 18  1  0
 18 19  2  0
 19 20  1  0
 20 21  2  0
 21 22  1  0
 22 23  2  0
 17 24  1  0
 24 25  2  0
  2 26  1  0
 26 27  1  0
 27 28  1  0
 28 29  1  0
 29 30  1  0
 30 31  1  0
 30 32  1  0
 32 33  1  0
 33 34  2  0
 33 35  1  0
 35 36  1  0
 36 37  1  0
 37 38  1  0
 38 39  2  0
 39 40  1  0
 40 41  2  0
 41 42  1  0
 42 43  2  0
 36 44  1  0
 44 45  2  0
 44 46  1  0
 46 47  1  0
 47 48  1  0
 48 49  1  0
 49 50  2  0
 50 51  1  0
 51 52  2  0
 52 53  1  0
 53 54  2  0
 47 55  1  0
 55 56  2  0
 55 57  1  0
 57 58  1  0
 58 59  1  0
 59 60  1  0
 60 61  2  0
 61 62  1  0
 62 63  2  0
 63 64  1  0
 64 65  2  0
 58 66  1  0
 66 67  2  0
 66 68  1  0
 10  4  1  0
 25 14  1  0
 31 26  1  0
 43 38  1  0
 54 49  1  0
 65 60  1  0
 11  6  1  0
 23 18  1  0
 32 28  1  0
M  END
>  <Title>  (20) 
idAAATgen7

$$$$

     RDKit          2D

 67 72  0  0  0  0  0  0  0  0999 V2000
   -7.9140    5.6597    0.0000 C   0  0  0  0  0  0  0  0  0  0  0  0
   -7.9140    7.1597    0.0000 C   0  0  0  0  0  0  0  0  0  0  0  0
   -7.9140    8.6597    0.0000 C   0  0  0  0  0  0  0  0  0  0  0  0
   -9.4140    7.1597    0.0000 C   0  0  0  0  0  0  0  0  0  0  0  0
   -6.4140    7.1597    0.0000 C   0  0  0  0  0  0  0  0  0  0  0  0
   -5.6640    8.4587    0.0000 C   0  0  0  0  0  0  0  0  0  0  0  0
   -6.4140    9.7578    0.0000 N   0  0  0  0  0  0  0  0  0  0  0  0
   -5.6640   11.0568    0.0000 C   0  0  0  0  0  0  0  0  0  0  0  0
   -4.1640   11.0568    0.0000 O   0  0  0  0  0  0  0  0  0  0  0  0
   -6.4140   12.3558    0.0000 C   0  0  0  0  0  0  0  0  0  0  0  0
   -7.9140   12.3558    0.0000 C   0  0  0  0  0  0  0  0  0  0  0  0
   -8.6640   11.0568    0.0000 C   0  0  0  0  0  0  0  0  0  0  0  0
   -7.9140    9.7578    0.0000 C   0  0  0  0  0  0  0  0  0  0  0  0
   -8.6640    8.4587    0.0000 C   0  0  0  0  0  0  0  0  0  0  0  0
  -10.1640    8.4587    0.0000 C   0  0  0  0  0  0  0  0  0  0  0  0
  -10.9140    9.7578    0.0000 C   0  0  0  0  0  0  0  0  0  0  0  0
  -10.1640   11.0568    0.0000 C   0  0  0  0  0  0  0  0  0  0  0  0
   -5.6640   13.6549    0.0000 N   0  0  0  0  0  0  0  0  0  0  0  0
   -4.1640   13.6549    0.0000 C   0  0  0  0  0  0  0  0  0  0  0  0
   -3.4140   12.3558    0.0000 O   0  0  0  0  0  0  0  0  0  0  0  0
   -3.4140   14.9539    0.0000 O   0  0  0  0  0  0  0  0  0  0  0  0
   -1.9140   14.9539    0.0000 C   0  0  0  0  0  0  0  0  0  0  0  0
   -1.0323   13.7404    0.0000 C   0  0  0  0  0  0  0  0  0  0  0  0
    0.3943   14.2039    0.0000 O   0  0  0  0  0  0  0  0  0  0  0  0
    0.3943   15.7039    0.0000 C   0  0  0  0  0  0  0  0  0  0  0  0
    1.2760   16.9174    0.0000 O   0  0  0  0  0  0  0  0  0  0  0  0
    0.3943   18.1310    0.0000 C   0  0  0  0  0  0  0  0  0  0  0  0
   -1.0323   17.6674    0.0000 C   0  0  0  0  0  0  0  0  0  0  0  0
   -1.0323   16.1674    0.0000 C   0  0  0  0  0  0  0  0  0  0  0  0
   -4.1640    8.4587    0.0000 S   0  0  0  0  0  0  0  0  0  0  0  0
   -4.1640    6.9587    0.0000 O   0  0  0  0  0  0  0  0  0  0  0  0
   -4.1640    9.9587    0.0000 O   0  0  0  0  0  0  0  0  0  0  0  0
   -2.6640    8.4587    0.0000 C   0  0  0  0  0  0  0  0  0  0  0  0
   -1.9140    7.1597    0.0000 C   0  0  0  0  0  0  0  0  0  0  0  0
   -0.4140    7.1597    0.0000 C   0  0  0  0  0  0  0  0  0  0  0  0
    0.3360    8.4587    0.0000 C   0  0  0  0  0  0  0  0  0  0  0  0
    1.8360    8.4587    0.0000 N   0  0  0  0  0  0  0  0  0  0  0  0
    2.5860    7.1597    0.0000 C   0  0  0  0  0  0  0  0  0  0  0  0
    1.8360    5.8606    0.0000 O   0  0  0  0  0  0  0  0  0  0  0  0
    4.0860    7.1597    0.0000 C   0  0  0  0  0  0  0  0  0  0  0  0
    4.8360    8.4587    0.0000 O   0  0  0  0  0  0  0  0  0  0  0  0
    4.8360    5.8606    0.0000 C   0  0  0  0  0  0  0  0  0  0  0  0
    4.0860    4.5616    0.0000 O   0  0  0  0  0  0  0  0  0  0  0  0
    6.3360    5.8606    0.0000 C   0  0  0  0  0  0  0  0  0  0  0  0
    7.0860    4.5616    0.0000 C   0  0  0  0  0  0  0  0  0  0  0  0
    8.5860    4.5616    0.0000 C   0  0  0  0  0  0  0  0  0  0  0  0
    9.3360    3.2626    0.0000 C   0  0  0  0  0  0  0  0  0  0  0  0
   10.8360    3.2626    0.0000 C   0  0  0  0  0  0  0  0  0  0  0  0
   11.5860    4.5616    0.0000 C   0  0  0  0  0  0  0  0  0  0  0  0
   10.8360    5.8606    0.0000 C   0  0  0  0  0  0  0  0  0  0  0  0
    9.3360    5.8606    0.0000 C   0  0  0  0  0  0  0  0  0  0  0  0
    7.0860    7.1597    0.0000 C   0  0  0  0  0  0  0  0  0  0  0  0
    6.3360    8.4587    0.0000 O   0  0  0  0  0  0  0  0  0  0  0  0
    8.5860    7.1597    0.0000 N   0  0  0  0  0  0  0  0  0  0  0  0
    9.3360    8.4587    0.0000 C   0  0  0  0  0  0  0  0  0  0  0  0
   10.8360    8.4587    0.0000 C   0  0  0  0  0  0  0  0  0  0  0  0
   11.5860    9.7578    0.0000 C   0  0  0  0  0  0  0  0  0  0  0  0
   13.0860    9.7578    0.0000 C   0  0  0  0  0  0  0  0  0  0  0  0
   13.8360   11.0568    0.0000 C   0  0  0  0  0  0  0  0  0  0  0  0
   13.0860   12.3558    0.0000 C   0  0  0  0  0  0  0  0  0  0  0  0
   11.5860   12.3558    0.0000 C   0  0  0  0  0  0  0  0  0  0  0  0
   10.8360   11.0568    0.0000 C   0  0  0  0  0  0  0  0  0  0  0  0
    8.5860    9.7578    0.0000 C   0  0  0  0  0  0  0  0  0  0  0  0
    7.0860    9.7578    0.0000 O   0  0  0  0  0  0  0  0  0  0  0  0
    9.3360   11.0568    0.0000 O   0  0  0  0  0  0  0  0  0  0  0  0
   -0.4140    9.7578    0.0000 C   0  0  0  0  0  0  0  0  0  0  0  0
   -1.9140    9.7578    0.0000 C   0  0  0  0  0  0  0  0  0  0  0  0
  1  2  1  0
  2  3  1  0
  2  4  1  0
  2  5  1  0
  5  6  1  0
  6  7  1  0
  7  8  1  0
  8  9  2  0
  8 10  1  0
 10 11  1  0
 11 12  1  0
 12 13  2  0
 13 14  1  0
 14 15  2  0
 15 16  1  0
 16 17  2  0
 10 18  1  0
 18 19  1  0
 19 20  2  0
 19 21  1  0
 21 22  1  0
 22 23  1  0
 23 24  1  0
 24 25  1  0
 25 26  1  0
 26 27  1  0
 27 28  1  0
 28 29  1  0
  6 30  1  0
 30 31  2  0
 30 32  2  0
 30 33  1  0
 33 34  2  0
 34 35  1  0
 35 36  2  0
 36 37  1  0
 37 38  1  0
 38 39  2  0
 38 40  1  0
 40 41  1  0
 40 42  1  0
 42 43  1  0
 42 44  1  0
 44 45  1  0
 45 46  1  0
 46 47  2  0
 47 48  1  0
 48 49  2  0
 49 50  1  0
 50 51  2  0
 44 52  1  0
 52 53  2  0
 52 54  1  0
 54 55  1  0
 55 56  1  0
 56 57  1  0
 57 58  2  0
 58 59  1  0
 59 60  2  0
 60 61  1  0
 61 62  2  0
 55 63  1  0
 63 64  2  0
 63 65  1  0
 36 66  1  0
 66 67  2  0
 17 12  1  0
 29 22  1  0
 67 33  1  0
 29 25  1  0
 51 46  1  0
 62 57  1  0
M  END
>  <Title>  (21) 
idAAAUgen7

$$$$

     RDKit          2D

 57 63  0  0  0  0  0  0  0  0999 V2000
    2.9888   -2.4152    0.0000 O   0  0  0  0  0  0  0  0  0  0  0  0
    1.5000   -2.5981    0.0000 C   0  0  0  0  0  0  0  0  0  0  0  0
    0.7500   -3.8971    0.0000 C   0  0  0  0  0  0  0  0  0  0  0  0
   -0.7500   -3.8971    0.0000 C   0  0  0  0  0  0  0  0  0  0  0  0
   -1.5000   -5.1962    0.0000 C   0  0  0  0  0  0  0  0  0  0  0  0
   -0.7500   -6.4952    0.0000 C   0  0  0  0  0  0  0  0  0  0  0  0
   -1.5000   -7.7942    0.0000 C   0  0  0  0  0  0  0  0  0  0  0  0
   -3.0000   -7.7942    0.0000 C   0  0  0  0  0  0  0  0  0  0  0  0
   -3.7500   -9.0933    0.0000 C   0  0  0  0  0  0  0  0  0  0  0  0
   -3.0000  -10.3923    0.0000 C   0  0  0  0  0  0  0  0  0  0  0  0
   -1.5000  -10.3923    0.0000 C   0  0  0  0  0  0  0  0  0  0  0  0
   -0.7500   -9.0933    0.0000 N   0  0  0  0  0  0  0  0  0  0  0  0
    0.7500   -6.4952    0.0000 C   0  0  0  0  0  0  0  0  0  0  0  0
    1.5000   -5.1962    0.0000 C   0  0  0  0  0  0  0  0  0  0  0  0
    0.7500   -1.2990    0.0000 C   0  0  0  0  0  0  0  0  0  0  0  0
    1.5000    0.0000    0.0000 C   0  0  0  0  0  0  0  0  0  0  0  0
    0.7500    1.2990    0.0000 C   0  0  0  0  0  0  0  0  0  0  0  0
   -0.7500    1.2990    0.0000 C   0  0  0  0  0  0  0  0  0  0  0  0
   -1.5000    0.0000    0.0000 C   0  0  0  0  0  0  0  0  0  0  0  0
   -0.7500   -1.2990    0.0000 C   0  0  0  0  0  0  0  0  0  0  0  0
   -0.0000   -0.0000    0.0000 C   0  0  0  0  0  0  0  0  0  0  0  0
    0.7500   -1.2990    0.0000 C   0  0  0  0  0  0  0  0  0  0  0  0
    2.2500   -1.2990    0.0000 O   0  0  0  0  0  0  0  0  0  0  0  0
   -0.0000   -2.5981    0.0000 N   0  0  0  0  0  0  0  0  0  0  0  0
    0.7500   -3.8971    0.0000 C   0  0  0  0  0  0  0  0  0  0  0  0
   -0.0000   -5.1962    0.0000 C   0  0  0  0  0  0  0  0  0  0  0  0
    0.7500   -6.4952    0.0000 C   0  0  0  0  0  0  0  0  0  0  0  0
   -0.0000   -7.7942    0.0000 C   0  0  0  0  0  0  0  0  0  0  0  0
    0.7500   -9.0933    0.0000 C   0  0  0  0  0  0  0  0  0  0  0  0
    2.2500   -9.0933    0.0000 C   0  0  0  0  0  0  0  0  0  0  0  0
    3.0000   -7.7942    0.0000 C   0  0  0  0  0  0  0  0  0  0  0  0
    2.2500   -6.4952    0.0000 C   0  0  0  0  0  0  0  0  0  0  0  0
    2.2500   -3.8971    0.0000 C   0  0  0  0  0  0  0  0  0  0  0  0
    3.1528   -2.6992    0.0000 O   0  0  0  0  0  0  0  0  0  0  0  0
    3.0000   -5.1962    0.0000 N   0  0  0  0  0  0  0  0  0  0  0  0
    4.5000   -5.1962    0.0000 C   0  0  0  0  0  0  0  0  0  0  0  0
    5.2500   -6.4952    0.0000 C   0  0  0  0  0  0  0  0  0  0  0  0
    6.7500   -6.4952    0.0000 C   0  0  0  0  0  0  0  0  0  0  0  0
    7.5000   -7.7942    0.0000 C   0  0  0  0  0  0  0  0  0  0  0  0
    9.0000   -7.7942    0.0000 C   0  0  0  0  0  0  0  0  0  0  0  0
    9.7500   -6.4952    0.0000 C   0  0  0  0  0  0  0  0  0  0  0  0
    9.0000   -5.1962    0.0000 C   0  0  0  0  0  0  0  0  0  0  0  0
    7.5000   -5.1962    0.0000 C   0  0  0  0  0  0  0  0  0  0  0  0
    5.2500   -3.8971    0.0000 C   0  0  0  0  0  0  0  0  0  0  0  0
    4.5000   -2.5981    0.0000 O   0  0  0  0  0  0  0  0  0  0  0  0
    6.7500   -3.8971    0.0000 N   0  0  0  0  0  0  0  0  0  0  0  0
    7.5000   -2.5981    0.0000 C   0  0  0  0  0  0  0  0  0  0  0  0
    9.0000   -2.5981    0.0000 C   0  0  0  0  0  0  0  0  0  0  0  0
    9.7500   -1.2990    0.0000 C   0  0  0  0  0  0  0  0  0  0  0  0
   11.2500   -1.2990    0.0000 C   0  0  0  0  0  0  0  0  0  0  0  0
   12.0000   -0.0000    0.0000 C   0  0  0  0  0  0  0  0  0  0  0  0
   11.2500    1.2990    0.0000 C   0  0  0  0  0  0  0  0  0  0  0  0
    9.7500    1.2990    0.0000 C   0  0  0  0  0  0  0  0  0  0  0  0
    9.0000   -0.0000    0.0000 C   0  0  0  0  0  0  0  0  0  0  0  0
    6.7500   -1.2990    0.0000 C   0  0  0  0  0  0  0  0  0  0  0  0
    5.2500   -1.2990    0.0000 O   0  0  0  0  0  0  0  0  0  0  0  0
    7.5000   -0.0000    0.0000 O   0  0  0  0  0  0  0  0  0  0  0  0
  1  2  2  0
  2  3  1  0
  3  4  2  0
  4  5  1  0
  5  6  2  0
  6  7  1  0
  7  8  2  0
  8  9  1  0
  9 10  2  0
 10 11  1  0
 11 12  2  0
  6 13  1  0
 13 14  2  0
  2 15  1  0
 15 16  1  0
 16 17  1  0
 17 18  1  0
 18 19  1  0
 19 20  1  0
 19 21  1  0
 21 22  1  0
 22 23  2  0
 22 24  1  0
 24 25  1  0
 25 26  1  0
 26 27  1  0
 27 28  2  0
 28 29  1  0
 29 30  2  0
 30 31  1  0
 31 32  2  0
 25 33  1  0
 33 34  2  0
 33 35  1  0
 35 36  1  0
 36 37  1  0
 37 38  1  0
 38 39  2  0
 39 40  1  0
 40 41  2  0
 41 42  1  0
 42 43  2  0
 36 44  1  0
 44 45  2  0
 44 46  1  0
 46 47  1  0
 47 48  1  0
 48 49  1  0
 49 50  2  0
 50 51  1  0
 51 52  2  0
 52 53  1  0
 53 54  2  0
 47 55  1  0
 55 56  2  0
 55 57  1  0
 14  3  1  0
 20 15  1  0
 32 27  1  0
 43 38  1  0
 54 49  1  0
 12  7  1  0
 21 17  1  0
M  END
>  <Title>  (22) 
idAAAVgen7

$$$$

     RDKit          2D

 63 68  0  0  0  0  0  0  0  0999 V2000
   -7.9140   11.2578    0.0000 C   0  0  0  0  0  0  0  0  0  0  0  0
   -7.9140    9.7578    0.0000 C   0  0  0  0  0  0  0  0  0  0  0  0
   -7.9140    8.2578    0.0000 C   0  0  0  0  0  0  0  0  0  0  0  0
   -9.4140    9.7578    0.0000 C   0  0  0  0  0  0  0  0  0  0  0  0
   -6.4140    9.7578    0.0000 C   0  0  0  0  0  0  0  0  0  0  0  0
   -5.6640    8.4587    0.0000 C   0  0  0  0  0  0  0  0  0  0  0  0
   -6.4140    7.1597    0.0000 N   0  0  0  0  0  0  0  0  0  0  0  0
   -5.6640    5.8606    0.0000 C   0  0  0  0  0  0  0  0  0  0  0  0
   -4.1640    5.8606    0.0000 O   0  0  0  0  0  0  0  0  0  0  0  0
   -6.4140    4.5616    0.0000 C   0  0  0  0  0  0  0  0  0  0  0  0
   -7.9140    4.5616    0.0000 C   0  0  0  0  0  0  0  0  0  0  0  0
   -8.6640    5.8606    0.0000 C   0  0  0  0  0  0  0  0  0  0  0  0
   -7.9140    7.1597    0.0000 C   0  0  0  0  0  0  0  0  0  0  0  0
   -8.6640    8.4587    0.0000 C   0  0  0  0  0  0  0  0  0  0  0  0
  -10.1640    8.4587    0.0000 C   0  0  0  0  0  0  0  0  0  0  0  0
  -10.9140    7.1597    0.0000 C   0  0  0  0  0  0  0  0  0  0  0  0
  -10.1640    5.8606    0.0000 C   0  0  0  0  0  0  0  0  0  0  0  0
   -5.6640    3.2626    0.0000 N   0  0  0  0  0  0  0  0  0  0  0  0
   -4.1640    3.2626    0.0000 C   0  0  0  0  0  0  0  0  0  0  0  0
   -3.4140    4.5616    0.0000 O   0  0  0  0  0  0  0  0  0  0  0  0
   -3.4140    1.9635    0.0000 O   0  0  0  0  0  0  0  0  0  0  0  0
   -1.9140    1.9635    0.0000 C   0  0  0  0  0  0  0  0  0  0  0  0
   -1.0323    3.1771    0.0000 C   0  0  0  0  0  0  0  0  0  0  0  0
    0.3943    2.7135    0.0000 O   0  0  0  0  0  0  0  0  0  0  0  0
    0.3943    1.2135    0.0000 C   0  0  0  0  0  0  0  0  0  0  0  0
    1.2760    0.0000    0.0000 O   0  0  0  0  0  0  0  0  0  0  0  0
    0.3943   -1.2135    0.0000 O   0  0  0  0  0  0  0  0  0  0  0  0
   -1.0323   -0.7500    0.0000 C   0  0  0  0  0  0  0  0  0  0  0  0
   -1.0323    0.7500    0.0000 C   0  0  0  0  0  0  0  0  0  0  0  0
   -4.1640    8.4587    0.0000 S   0  0  0  0  0  0  0  0  0  0  0  0
   -4.1640    6.9587    0.0000 O   0  0  0  0  0  0  0  0  0  0  0  0
   -4.1640    9.9587    0.0000 O   0  0  0  0  0  0  0  0  0  0  0  0
   -2.6640    8.4587    0.0000 C   0  0  0  0  0  0  0  0  0  0  0  0
   -1.9140    7.1597    0.0000 C   0  0  0  0  0  0  0  0  0  0  0  0
   -0.4140    7.1597    0.0000 C   0  0  0  0  0  0  0  0  0  0  0  0
    0.3360    8.4587    0.0000 C   0  0  0  0  0  0  0  0  0  0  0  0
   -0.4140    9.7578    0.0000 C   0  0  0  0  0  0  0  0  0  0  0  0
   -1.9140    9.7578    0.0000 C   0  0  0  0  0  0  0  0  0  0  0  0
   -2.6640   11.0568    0.0000 C   0  0  0  0  0  0  0  0  0  0  0  0
   -4.1640   11.0568    0.0000 O   0  0  0  0  0  0  0  0  0  0  0  0
   -1.9140   12.3558    0.0000 N   0  0  0  0  0  0  0  0  0  0  0  0
   -2.6640   13.6549    0.0000 C   0  0  0  0  0  0  0  0  0  0  0  0
   -1.9140   14.9539    0.0000 C   0  0  0  0  0  0  0  0  0  0  0  0
   -2.6640   16.2529    0.0000 C   0  0  0  0  0  0  0  0  0  0  0  0
   -1.9140   17.5520    0.0000 C   0  0  0  0  0  0  0  0  0  0  0  0
   -2.6640   18.8510    0.0000 C   0  0  0  0  0  0  0  0  0  0  0  0
   -4.1640   18.8510    0.0000 C   0  0  0  0  0  0  0  0  0  0  0  0
   -4.9140   17.5520    0.0000 C   0  0  0  0  0  0  0  0  0  0  0  0
   -4.1640   16.2529    0.0000 C   0  0  0  0  0  0  0  0  0  0  0  0
   -4.1640   13.6549    0.0000 C   0  0  0  0  0  0  0  0  0  0  0  0
   -4.9140   12.3558    0.0000 O   0  0  0  0  0  0  0  0  0  0  0  0
   -4.9140   14.9539    0.0000 N   0  0  0  0  0  0  0  0  0  0  0  0
   -6.4140   14.9539    0.0000 C   0  0  0  0  0  0  0  0  0  0  0  0
   -7.1640   16.2529    0.0000 C   0  0  0  0  0  0  0  0  0  0  0  0
   -8.6640   16.2529    0.0000 C   0  0  0  0  0  0  0  0  0  0  0  0
   -9.4140   17.5520    0.0000 C   0  0  0  0  0  0  0  0  0  0  0  0
  -10.9140   17.5520    0.0000 C   0  0  0  0  0  0  0  0  0  0  0  0
  -11.6640   16.2529    0.0000 C   0  0  0  0  0  0  0  0  0  0  0  0
  -10.9140   14.9539    0.0000 C   0  0  0  0  0  0  0  0  0  0  0  0
   -9.4140   14.9539    0.0000 C   0  0  0  0  0  0  0  0  0  0  0  0
   -7.1640   13.6549    0.0000 C   0  0  0  0  0  0  0  0  0  0  0  0
   -6.4140   12.3558    0.0000 O   0  0  0  0  0  0  0  0  0  0  0  0
   -8.6640   13.6549    0.0000 O   0  0  0  0  0  0  0  0  0  0  0  0
  1  2  1  0
  2  3  1  0
  2  4  1  0
  2  5  1  0
  5  6  1  0
  6  7  1  0
  7  8  1  0
  8  9  2  0
  8 10  1  0
 10 11  1  0
 11 12  1  0
 12 13  2  0
 13 14  1  0
 14 15  2  0
 15 16  1  0
 16 17  2  0
 10 18  1  0
 18 19  1  0
 19 20  2  0
 19 21  1  0
 21 22  1  0
 22 23  1  0
 23 24  1  0
 24 25  1  0
 25 26  1  0
 26 27  1  0
 27 28  1  0
 28 29  1  0
  6 30  1  0
 30 31  2  0
 30 32  2  0
 30 33  1  0
 33 34  2  0
 34 35  1  0
 35 36  2  0
 36 37  1  0
 37 38  2  0
 38 39  1  0
 39 40  2  0
 39 41  1  0
 41 42  1  0
 42 43  1  0
 43 44  1  0
 44 45  2  0
 45 46  1  0
 46 47  2  0
 47 48  1  0
 48 49  2  0
 42 50  1  0
 50 51  2  0
 50 52  1  0
 52 53  1  0
 53 54  1  0
 54 55  1  0
 55 56  2  0
 56 57  1  0
 57 58  2  0
 58 59  1  0
 59 60  2  0
 53 61  1  0
 61 62  2  0
 61 63  1  0
 17 12  1  0
 29 22  1  0
 38 33  1  0
 49 44  1  0
 60 55  1  0
 29 25  1  0
M  END
>  <Title>  (23) 
idAAAWgen7

$$$$

     RDKit          2D

 52 58  0  0  0  0  0  0  0  0999 V2000
   -0.7500   -3.8971    0.0000 O   0  0  0  0  0  0  0  0  0  0  0  0
    0.7500   -3.8971    0.0000 C   0  0  0  0  0  0  0  0  0  0  0  0
    1.5000   -5.1962    0.0000 N   0  0  0  0  0  0  0  0  0  0  0  0
    0.7500   -6.4952    0.0000 C   0  0  0  0  0  0  0  0  0  0  0  0
    1.5000   -7.7942    0.0000 C   0  0  0  0  0  0  0  0  0  0  0  0
    0.7500   -9.0933    0.0000 C   0  0  0  0  0  0  0  0  0  0  0  0
   -0.3647  -10.0970    0.0000 C   0  0  0  0  0  0  0  0  0  0  0  0
   -1.6638   -9.3470    0.0000 C   0  0  0  0  0  0  0  0  0  0  0  0
   -1.3519   -7.8797    0.0000 C   0  0  0  0  0  0  0  0  0  0  0  0
   -0.7500   -6.4952    0.0000 C   0  0  0  0  0  0  0  0  0  0  0  0
    0.1399   -7.7229    0.0000 N   0  0  0  0  0  0  0  0  0  0  0  0
    0.8899   -6.4239    0.0000 C   0  0  0  0  0  0  0  0  0  0  0  0
    2.3899   -6.4239    0.0000 C   0  0  0  0  0  0  0  0  0  0  0  0
    3.1399   -5.1249    0.0000 C   0  0  0  0  0  0  0  0  0  0  0  0
    4.6399   -5.1249    0.0000 C   0  0  0  0  0  0  0  0  0  0  0  0
    5.3899   -3.8258    0.0000 C   0  0  0  0  0  0  0  0  0  0  0  0
    4.6399   -2.5268    0.0000 C   0  0  0  0  0  0  0  0  0  0  0  0
    5.3899   -1.2278    0.0000 C   0  0  0  0  0  0  0  0  0  0  0  0
    6.8899   -1.2278    0.0000 C   0  0  0  0  0  0  0  0  0  0  0  0
    7.6399    0.0713    0.0000 C   0  0  0  0  0  0  0  0  0  0  0  0
    6.8899    1.3703    0.0000 C   0  0  0  0  0  0  0  0  0  0  0  0
    5.3899    1.3703    0.0000 C   0  0  0  0  0  0  0  0  0  0  0  0
    4.6399    0.0713    0.0000 N   0  0  0  0  0  0  0  0  0  0  0  0
    3.1399   -2.5268    0.0000 C   0  0  0  0  0  0  0  0  0  0  0  0
    2.3899   -3.8258    0.0000 C   0  0  0  0  0  0  0  0  0  0  0  0
    1.5000   -2.5981    0.0000 O   0  0  0  0  0  0  0  0  0  0  0  0
    0.7500   -1.2990    0.0000 C   0  0  0  0  0  0  0  0  0  0  0  0
    1.5000    0.0000    0.0000 C   0  0  0  0  0  0  0  0  0  0  0  0
    0.7500    1.2990    0.0000 O   0  0  0  0  0  0  0  0  0  0  0  0
   -0.7500    1.2990    0.0000 C   0  0  0  0  0  0  0  0  0  0  0  0
    0.0000    2.5981    0.0000 O   0  0  0  0  0  0  0  0  0  0  0  0
   -1.5000    2.5981    0.0000 C   0  0  0  0  0  0  0  0  0  0  0  0
   -3.0000    2.5981    0.0000 C   0  0  0  0  0  0  0  0  0  0  0  0
   -3.7500    3.8971    0.0000 O   0  0  0  0  0  0  0  0  0  0  0  0
   -3.7500    1.2990    0.0000 C   0  0  0  0  0  0  0  0  0  0  0  0
   -3.0000    0.0000    0.0000 C   0  0  0  0  0  0  0  0  0  0  0  0
   -1.5000    0.0000    0.0000 C   0  0  0  0  0  0  0  0  0  0  0  0
   -2.2500   -1.2990    0.0000 C   0  0  0  0  0  0  0  0  0  0  0  0
   -3.7500   -1.2990    0.0000 C   0  0  0  0  0  0  0  0  0  0  0  0
   -4.5000    0.0000    0.0000 O   0  0  0  0  0  0  0  0  0  0  0  0
   -4.5000   -2.5981    0.0000 C   0  0  0  0  0  0  0  0  0  0  0  0
   -6.0000   -2.5981    0.0000 C   0  0  0  0  0  0  0  0  0  0  0  0
   -6.7500   -3.8971    0.0000 C   0  0  0  0  0  0  0  0  0  0  0  0
   -8.2500   -3.8971    0.0000 C   0  0  0  0  0  0  0  0  0  0  0  0
   -9.0000   -5.1962    0.0000 C   0  0  0  0  0  0  0  0  0  0  0  0
   -8.2500   -6.4952    0.0000 C   0  0  0  0  0  0  0  0  0  0  0  0
   -6.7500   -6.4952    0.0000 C   0  0  0  0  0  0  0  0  0  0  0  0
   -6.0000   -5.1962    0.0000 C   0  0  0  0  0  0  0  0  0  0  0  0
   -3.7500   -3.8971    0.0000 C   0  0  0  0  0  0  0  0  0  0  0  0
   -2.2500   -3.8971    0.0000 O   0  0  0  0  0  0  0  0  0  0  0  0
   -4.5000   -5.1962    0.0000 O   0  0  0  0  0  0  0  0  0  0  0  0
   -0.7500   -1.2990    0.0000 C   0  0  0  0  0  0  0  0  0  0  0  0
  1  2  2  0
  2  3  1  0
  3  4  1  0
  4  5  1  0
  5  6  1  0
  6  7  1  0
  7  8  1  0
  8  9  1  0
  9 10  1  0
  9 11  1  0
 11 12  1  0
 12 13  1  0
 13 14  1  0
 14 15  2  0
 15 16  1  0
 16 17  2  0
 17 18  1  0
 18 19  2  0
 19 20  1  0
 20 21  2  0
 21 22  1  0
 22 23  2  0
 17 24  1  0
 24 25  2  0
  2 26  1  0
 26 27  1  0
 27 28  1  0
 28 29  1  0
 29 30  1  0
 30 31  1  0
 30 32  1  0
 32 33  1  0
 33 34  1  0
 33 35  1  0
 35 36  1  0
 36 37  1  0
 37 38  1  0
 38 39  1  0
 39 40  1  0
 39 41  1  0
 41 42  1  0
 42 43  1  0
 43 44  2  0
 44 45  1  0
 45 46  2  0
 46 47  1  0
 47 48  2  0
 41 49  1  0
 49 50  2  0
 49 51  1  0
 37 52  1  0
 10  4  1  0
 25 14  1  0
 52 27  1  0
 11  6  1  0
 23 18  1  0
 37 30  1  0
 48 43  1  0
M  END
>  <Title>  (24) 
idAAAXgen7

$$$$

     RDKit          2D

 56 61  0  0  0  0  0  0  0  0999 V2000
    1.0860    4.5616    0.0000 N   0  0  0  0  0  0  0  0  0  0  0  0
    0.3360    5.8606    0.0000 C   0  0  0  0  0  0  0  0  0  0  0  0
   -1.1640    5.8606    0.0000 O   0  0  0  0  0  0  0  0  0  0  0  0
    1.0860    7.1597    0.0000 C   0  0  0  0  0  0  0  0  0  0  0  0
    2.5860    7.1597    0.0000 C   0  0  0  0  0  0  0  0  0  0  0  0
    3.3360    5.8606    0.0000 C   0  0  0  0  0  0  0  0  0  0  0  0
    2.5860    4.5616    0.0000 C   0  0  0  0  0  0  0  0  0  0  0  0
    3.3360    3.2626    0.0000 C   0  0  0  0  0  0  0  0  0  0  0  0
    4.8360    3.2626    0.0000 C   0  0  0  0  0  0  0  0  0  0  0  0
    5.5860    4.5616    0.0000 C   0  0  0  0  0  0  0  0  0  0  0  0
    4.8360    5.8606    0.0000 C   0  0  0  0  0  0  0  0  0  0  0  0
    0.3360    8.4587    0.0000 N   0  0  0  0  0  0  0  0  0  0  0  0
   -1.1640    8.4587    0.0000 C   0  0  0  0  0  0  0  0  0  0  0  0
   -1.9140    7.1597    0.0000 O   0  0  0  0  0  0  0  0  0  0  0  0
   -1.9140    9.7578    0.0000 C   0  0  0  0  0  0  0  0  0  0  0  0
   -1.1640   11.0568    0.0000 C   0  0  0  0  0  0  0  0  0  0  0  0
    0.3360   11.0568    0.0000 C   0  0  0  0  0  0  0  0  0  0  0  0
    1.0860    9.7578    0.0000 C   0  0  0  0  0  0  0  0  0  0  0  0
    2.5860    9.7578    0.0000 C   0  0  0  0  0  0  0  0  0  0  0  0
    3.3360   11.0568    0.0000 C   0  0  0  0  0  0  0  0  0  0  0  0
    2.5860   12.3558    0.0000 C   0  0  0  0  0  0  0  0  0  0  0  0
    1.0860   12.3558    0.0000 C   0  0  0  0  0  0  0  0  0  0  0  0
   -3.4140    9.7578    0.0000 N   0  0  0  0  0  0  0  0  0  0  0  0
   -4.1640    8.4587    0.0000 C   0  0  0  0  0  0  0  0  0  0  0  0
   -3.4140    7.1597    0.0000 O   0  0  0  0  0  0  0  0  0  0  0  0
   -5.6640    8.4587    0.0000 C   0  0  0  0  0  0  0  0  0  0  0  0
   -6.4140    9.7578    0.0000 C   0  0  0  0  0  0  0  0  0  0  0  0
   -5.6640   11.0568    0.0000 C   0  0  0  0  0  0  0  0  0  0  0  0
   -4.1640   11.0568    0.0000 C   0  0  0  0  0  0  0  0  0  0  0  0
   -3.4140   12.3558    0.0000 C   0  0  0  0  0  0  0  0  0  0  0  0
   -4.1640   13.6549    0.0000 C   0  0  0  0  0  0  0  0  0  0  0  0
   -5.6640   13.6549    0.0000 C   0  0  0  0  0  0  0  0  0  0  0  0
   -6.4140   12.3558    0.0000 C   0  0  0  0  0  0  0  0  0  0  0  0
   -6.4140    7.1597    0.0000 N   0  0  0  0  0  0  0  0  0  0  0  0
   -5.6640    5.8606    0.0000 C   0  0  0  0  0  0  0  0  0  0  0  0
   -4.1640    5.8606    0.0000 O   0  0  0  0  0  0  0  0  0  0  0  0
   -6.4140    4.5616    0.0000 C   0  0  0  0  0  0  0  0  0  0  0  0
   -7.9140    4.5616    0.0000 C   0  0  0  0  0  0  0  0  0  0  0  0
   -8.6640    5.8606    0.0000 C   0  0  0  0  0  0  0  0  0  0  0  0
   -7.9140    7.1597    0.0000 C   0  0  0  0  0  0  0  0  0  0  0  0
   -8.6640    8.4587    0.0000 C   0  0  0  0  0  0  0  0  0  0  0  0
  -10.1640    8.4587    0.0000 C   0  0  0  0  0  0  0  0  0  0  0  0
  -10.9140    7.1597    0.0000 C   0  0  0  0  0  0  0  0  0  0  0  0
  -10.1640    5.8606    0.0000 C   0  0  0  0  0  0  0  0  0  0  0  0
   -5.6640    3.2626    0.0000 N   0  0  0  0  0  0  0  0  0  0  0  0
   -4.1640    3.2626    0.0000 C   0  0  0  0  0  0  0  0  0  0  0  0
   -3.4140    4.5616    0.0000 O   0  0  0  0  0  0  0  0  0  0  0  0
   -3.4140    1.9635    0.0000 O   0  0  0  0  0  0  0  0  0  0  0  0
   -1.9140    1.9635    0.0000 C   0  0  0  0  0  0  0  0  0  0  0  0
   -1.0323    3.1771    0.0000 C   0  0  0  0  0  0  0  0  0  0  0  0
    0.3943    2.7135    0.0000 O   0  0  0  0  0  0  0  0  0  0  0  0
    0.3943    1.2135    0.0000 C   0  0  0  0  0  0  0  0  0  0  0  0
    1.2760    0.0000    0.0000 O   0  0  0  0  0  0  0  0  0  0  0  0
    0.3943   -1.2135    0.0000 C   0  0  0  0  0  0  0  0  0  0  0  0
   -1.0323   -0.7500    0.0000 C   0  0  0  0  0  0  0  0  0  0  0  0
   -1.0323    0.7500    0.0000 C   0  0  0  0  0  0  0  0  0  0  0  0
  1  2  1  0
  2  3  2  0
  2  4  1  0
  4  5  1  0
  5  6  1  0
  6  7  2  0
  7  8  1  0
  8  9  2  0
  9 10  1  0
 10 11  2  0
  4 12  1  0
 12 13  1  0
 13 14  2  0
 13 15  1  0
 15 16  1  0
 16 17  1  0
 17 18  2  0
 18 19  1  0
 19 20  2  0
 20 21  1  0
 21 22  2  0
 15 23  1  0
 23 24  1  0
 24 25  2  0
 24 26  1  0
 26 27  1  0
 27 28  1  0
 28 29  2  0
 29 30  1  0
 30 31  2  0
 31 32  1  0
 32 33  2  0
 26 34  1  0
 34 35  1  0
 35 36  2  0
 35 37  1  0
 37 38  1  0
 38 39  1  0
 39 40  2  0
 40 41  1  0
 41 42  2  0
 42 43  1  0
 43 44  2  0
 37 45  1  0
 45 46  1  0
 46 47  2  0
 46 48  1  0
 48 49  1  0
 49 50  1  0
 50 51  1  0
 51 52  1  0
 52 53  1  0
 53 54  1  0
 54 55  1  0
 55 56  1  0
 11  6  1  0
 22 17  1  0
 33 28  1  0
 44 39  1  0
 56 49  1  0
 56 52  1  0
M  END
>  <Title>  (25) 
idAAAYgen7

$$$$

     RDKit          2D

 71 78  0  0  0  0  0  0  0  0999 V2000
   -0.7500   -3.8971    0.0000 O   0  0  0  0  0  0  0  0  0  0  0  0
    0.7500   -3.8971    0.0000 C   0  0  0  0  0  0  0  0  0  0  0  0
    1.5000   -5.1962    0.0000 C   0  0  0  0  0  0  0  0  0  0  0  0
    0.7500   -6.4952    0.0000 C   0  0  0  0  0  0  0  0  0  0  0  0
    1.5000   -7.7942    0.0000 C   0  0  0  0  0  0  0  0  0  0  0  0
    0.7500   -9.0933    0.0000 C   0  0  0  0  0  0  0  0  0  0  0  0
    1.5000  -10.3923    0.0000 C   0  0  0  0  0  0  0  0  0  0  0  0
    3.0000  -10.3923    0.0000 C   0  0  0  0  0  0  0  0  0  0  0  0
    3.7500  -11.6913    0.0000 C   0  0  0  0  0  0  0  0  0  0  0  0
    3.0000  -12.9904    0.0000 C   0  0  0  0  0  0  0  0  0  0  0  0
    3.7500  -14.2894    0.0000 C   0  0  0  0  0  0  0  0  0  0  0  0
    5.2500  -14.2894    0.0000 C   0  0  0  0  0  0  0  0  0  0  0  0
    6.0000  -12.9904    0.0000 C   0  0  0  0  0  0  0  0  0  0  0  0
    5.2500  -11.6913    0.0000 N   0  0  0  0  0  0  0  0  0  0  0  0
    3.7500   -9.0933    0.0000 C   0  0  0  0  0  0  0  0  0  0  0  0
    3.0000   -7.7942    0.0000 C   0  0  0  0  0  0  0  0  0  0  0  0
    1.5000   -2.5981    0.0000 N   0  0  0  0  0  0  0  0  0  0  0  0
    0.7500   -1.2990    0.0000 C   0  0  0  0  0  0  0  0  0  0  0  0
    1.5000    0.0000    0.0000 C   0  0  0  0  0  0  0  0  0  0  0  0
    0.7500    1.2990    0.0000 C   0  0  0  0  0  0  0  0  0  0  0  0
   -0.7500    1.2990    0.0000 C   0  0  0  0  0  0  0  0  0  0  0  0
   -1.5000    0.0000    0.0000 C   0  0  0  0  0  0  0  0  0  0  0  0
   -0.7500   -1.2990    0.0000 C   0  0  0  0  0  0  0  0  0  0  0  0
   -0.0000   -0.0000    0.0000 C   0  0  0  0  0  0  0  0  0  0  0  0
    0.7500   -1.2990    0.0000 C   0  0  0  0  0  0  0  0  0  0  0  0
    2.2500   -1.2990    0.0000 O   0  0  0  0  0  0  0  0  0  0  0  0
   -0.0000   -2.5981    0.0000 N   0  0  0  0  0  0  0  0  0  0  0  0
    0.7500   -3.8971    0.0000 C   0  0  0  0  0  0  0  0  0  0  0  0
   -0.0000   -5.1962    0.0000 C   0  0  0  0  0  0  0  0  0  0  0  0
    0.7500   -6.4952    0.0000 C   0  0  0  0  0  0  0  0  0  0  0  0
   -0.0000   -7.7942    0.0000 C   0  0  0  0  0  0  0  0  0  0  0  0
    0.7500   -9.0933    0.0000 C   0  0  0  0  0  0  0  0  0  0  0  0
    2.2500   -9.0933    0.0000 C   0  0  0  0  0  0  0  0  0  0  0  0
    3.0000   -7.7942    0.0000 C   0  0  0  0  0  0  0  0  0  0  0  0
    2.2500   -6.4952    0.0000 C   0  0  0  0  0  0  0  0  0  0  0  0
    2.2500   -3.8971    0.0000 C   0  0  0  0  0  0  0  0  0  0  0  0
    3.0000   -2.5981    0.0000 O   0  0  0  0  0  0  0  0  0  0  0  0
    3.0000   -5.1962    0.0000 N   0  0  0  0  0  0  0  0  0  0  0  0
    4.5000   -5.1962    0.0000 C   0  0  0  0  0  0  0  0  0  0  0  0
    5.2500   -6.4952    0.0000 C   0  0  0  0  0  0  0  0  0  0  0  0
    6.7500   -6.4952    0.0000 C   0  0  0  0  0  0  0  0  0  0  0  0
    7.5000   -7.7942    0.0000 C   0  0  0  0  0  0  0  0  0  0  0  0
    9.0000   -7.7942    0.0000 C   0  0  0  0  0  0  0  0  0  0  0  0
    9.7500   -6.4952    0.0000 C   0  0  0  0  0  0  0  0  0  0  0  0
    9.0000   -5.1962    0.0000 C   0  0  0  0  0  0  0  0  0  0  0  0
    7.5000   -5.1962    0.0000 C   0  0  0  0  0  0  0  0  0  0  0  0
    5.2500   -3.8971    0.0000 C   0  0  0  0  0  0  0  0  0  0  0  0
    4.5000   -2.5981    0.0000 O   0  0  0  0  0  0  0  0  0  0  0  0
    6.7500   -3.8971    0.0000 N   0  0  0  0  0  0  0  0  0  0  0  0
    7.5000   -2.5981    0.0000 C   0  0  0  0  0  0  0  0  0  0  0  0
    9.0000   -2.5981    0.0000 C   0  0  0  0  0  0  0  0  0  0  0  0
    9.7500   -1.2990    0.0000 C   0  0  0  0  0  0  0  0  0  0  0  0
   11.2500   -1.2990    0.0000 C   0  0  0  0  0  0  0  0  0  0  0  0
   12.0000   -0.0000    0.0000 C   0  0  0  0  0  0  0  0  0  0  0  0
   11.2500    1.2990    0.0000 C   0  0  0  0  0  0  0  0  0  0  0  0
    9.7500    1.2990    0.0000 C   0  0  0  0  0  0  0  0  0  0  0  0
    9.0000   -0.0000    0.0000 C   0  0  0  0  0  0  0  0  0  0  0  0
    6.7500   -1.2990    0.0000 C   0  0  0  0  0  0  0  0  0  0  0  0
    5.2500   -1.2990    0.0000 O   0  0  0  0  0  0  0  0  0  0  0  0
    7.5000   -0.0000    0.0000 N   0  0  0  0  0  0  0  0  0  0  0  0
    6.7500    1.2990    0.0000 C   0  0  0  0  0  0  0  0  0  0  0  0
    7.5000    2.5981    0.0000 C   0  0  0  0  0  0  0  0  0  0  0  0
    6.7500    3.8971    0.0000 C   0  0  0  0  0  0  0  0  0  0  0  0
    7.5000    5.1962    0.0000 C   0  0  0  0  0  0  0  0  0  0  0  0
    6.7500    6.4952    0.0000 C   0  0  0  0  0  0  0  0  0  0  0  0
    5.2500    6.4952    0.0000 C   0  0  0  0  0  0  0  0  0  0  0  0
    4.5000    5.1962    0.0000 C   0  0  0  0  0  0  0  0  0  0  0  0
    5.2500    3.8971    0.0000 C   0  0  0  0  0  0  0  0  0  0  0  0
    5.2500    1.2990    0.0000 C   0  0  0  0  0  0  0  0  0  0  0  0
    4.5000   -0.0000    0.0000 O   0  0  0  0  0  0  0  0  0  0  0  0
    4.5000    2.5981    0.0000 O   0  0  0  0  0  0  0  0  0  0  0  0
  1  2  2  0
  2  3  1  0
  3  4  2  3
  4  5  1  0
  5  6  2  0
  6  7  1  0
  7  8  2  0
  8  9  1  0
  9 10  2  0
 10 11  1  0
 11 12  2  0
 12 13  1  0
 13 14  2  0
  8 15  1  0
 15 16  2  0
  2 17  1  0
 17 18  1  0
 18 19  1  0
 19 20  1  0
 20 21  1  0
 21 22  1  0
 22 23  1  0
 22 24  1  0
 24 25  1  0
 25 26  2  0
 25 27  1  0
 27 28  1  0
 28 29  1  0
 29 30  1  0
 30 31  2  0
 31 32  1  0
 32 33  2  0
 33 34  1  0
 34 35  2  0
 28 36  1  0
 36 37  2  0
 36 38  1  0
 38 39  1  0
 39 40  1  0
 40 41  1  0
 41 42  2  0
 42 43  1  0
 43 44  2  0
 44 45  1  0
 45 46  2  0
 39 47  1  0
 47 48  2  0
 47 49  1  0
 49 50  1  0
 50 51  1  0
 51 52  1  0
 52 53  2  0
 53 54  1  0
 54 55  2  0
 55 56  1  0
 56 57  2  0
 50 58  1  0
 58 59  2  0
 58 60  1  0
 60 61  1  0
 61 62  1  0
 62 63  1  0
 63 64  2  0
 64 65  1  0
 65 66  2  0
 66 67  1  0
 67 68  2  0
 61 69  1  0
 69 70  2  0
 69 71  1  0
 16  5  1  0
 23 18  1  0
 35 30  1  0
 46 41  1  0
 57 52  1  0
 68 63  1  0
 14  9  1  0
 24 20  1  0
M  END
>  <Title>  (26) 
idAAAZgen7

$$$$

     RDKit          2D

 64 70  0  0  0  0  0  0  0  0999 V2000
   -1.4033    6.9044    0.0000 C   0  0  0  0  0  0  0  0  0  0  0  0
   -2.7242    6.1936    0.0000 C   0  0  0  0  0  0  0  0  0  0  0  0
   -4.0451    5.4828    0.0000 C   0  0  0  0  0  0  0  0  0  0  0  0
   -3.4350    7.5145    0.0000 C   0  0  0  0  0  0  0  0  0  0  0  0
   -2.0134    4.8727    0.0000 N   0  0  0  0  0  0  0  0  0  0  0  0
   -2.8019    3.5967    0.0000 C   0  0  0  0  0  0  0  0  0  0  0  0
   -4.2675    3.2775    0.0000 O   0  0  0  0  0  0  0  0  0  0  0  0
   -2.0911    2.2758    0.0000 C   0  0  0  0  0  0  0  0  0  0  0  0
   -0.5926    2.3431    0.0000 C   0  0  0  0  0  0  0  0  0  0  0  0
    0.3943    1.2135    0.0000 C   0  0  0  0  0  0  0  0  0  0  0  0
    1.2760    0.0000    0.0000 C   0  0  0  0  0  0  0  0  0  0  0  0
    0.3943   -1.2135    0.0000 C   0  0  0  0  0  0  0  0  0  0  0  0
   -1.0323   -0.7500    0.0000 C   0  0  0  0  0  0  0  0  0  0  0  0
   -2.5737   -0.3836    0.0000 C   0  0  0  0  0  0  0  0  0  0  0  0
   -2.9728    1.0623    0.0000 C   0  0  0  0  0  0  0  0  0  0  0  0
   -4.4487    1.3301    0.0000 C   0  0  0  0  0  0  0  0  0  0  0  0
   -5.2813    2.5778    0.0000 O   0  0  0  0  0  0  0  0  0  0  0  0
   -5.4186    0.1859    0.0000 N   0  0  0  0  0  0  0  0  0  0  0  0
   -6.8945    0.4537    0.0000 C   0  0  0  0  0  0  0  0  0  0  0  0
   -7.8644   -0.6905    0.0000 C   0  0  0  0  0  0  0  0  0  0  0  0
   -9.3403   -0.4227    0.0000 C   0  0  0  0  0  0  0  0  0  0  0  0
   -9.8463    0.9894    0.0000 C   0  0  0  0  0  0  0  0  0  0  0  0
  -11.3221    1.2572    0.0000 C   0  0  0  0  0  0  0  0  0  0  0  0
  -12.2920    0.1130    0.0000 C   0  0  0  0  0  0  0  0  0  0  0  0
  -11.7861   -1.2991    0.0000 C   0  0  0  0  0  0  0  0  0  0  0  0
  -10.3102   -1.5669    0.0000 C   0  0  0  0  0  0  0  0  0  0  0  0
   -7.4005    1.8658    0.0000 C   0  0  0  0  0  0  0  0  0  0  0  0
   -6.4306    3.0101    0.0000 O   0  0  0  0  0  0  0  0  0  0  0  0
   -8.8764    2.1337    0.0000 N   0  0  0  0  0  0  0  0  0  0  0  0
   -9.3823    3.5457    0.0000 C   0  0  0  0  0  0  0  0  0  0  0  0
  -10.8582    3.8136    0.0000 C   0  0  0  0  0  0  0  0  0  0  0  0
  -11.3642    5.2256    0.0000 C   0  0  0  0  0  0  0  0  0  0  0  0
  -10.3943    6.3699    0.0000 C   0  0  0  0  0  0  0  0  0  0  0  0
  -10.9003    7.7820    0.0000 C   0  0  0  0  0  0  0  0  0  0  0  0
  -12.3762    8.0498    0.0000 C   0  0  0  0  0  0  0  0  0  0  0  0
  -13.3461    6.9056    0.0000 C   0  0  0  0  0  0  0  0  0  0  0  0
  -12.8401    5.4935    0.0000 C   0  0  0  0  0  0  0  0  0  0  0  0
   -8.4125    4.6900    0.0000 C   0  0  0  0  0  0  0  0  0  0  0  0
   -8.5617    6.1825    0.0000 O   0  0  0  0  0  0  0  0  0  0  0  0
   -7.0452    4.0730    0.0000 O   0  0  0  0  0  0  0  0  0  0  0  0
   -1.0323    0.7500    0.0000 C   0  0  0  0  0  0  0  0  0  0  0  0
   -2.2458    1.6317    0.0000 C   0  0  0  0  0  0  0  0  0  0  0  0
   -2.0890    3.1235    0.0000 C   0  0  0  0  0  0  0  0  0  0  0  0
   -0.7187    3.7336    0.0000 O   0  0  0  0  0  0  0  0  0  0  0  0
   -3.3025    4.0051    0.0000 C   0  0  0  0  0  0  0  0  0  0  0  0
   -3.1458    5.4969    0.0000 C   0  0  0  0  0  0  0  0  0  0  0  0
   -4.3593    6.3786    0.0000 C   0  0  0  0  0  0  0  0  0  0  0  0
   -4.2025    7.8704    0.0000 C   0  0  0  0  0  0  0  0  0  0  0  0
   -5.4160    8.7521    0.0000 C   0  0  0  0  0  0  0  0  0  0  0  0
   -6.7863    8.1420    0.0000 C   0  0  0  0  0  0  0  0  0  0  0  0
   -6.9431    6.6502    0.0000 C   0  0  0  0  0  0  0  0  0  0  0  0
   -5.7296    5.7685    0.0000 C   0  0  0  0  0  0  0  0  0  0  0  0
   -4.6729    3.3950    0.0000 N   0  0  0  0  0  0  0  0  0  0  0  0
   -5.8864    4.2767    0.0000 C   0  0  0  0  0  0  0  0  0  0  0  0
   -6.0952    5.7621    0.0000 O   0  0  0  0  0  0  0  0  0  0  0  0
   -7.2567    3.6666    0.0000 O   0  0  0  0  0  0  0  0  0  0  0  0
   -8.4702    4.5483    0.0000 C   0  0  0  0  0  0  0  0  0  0  0  0
   -8.4702    6.0483    0.0000 C   0  0  0  0  0  0  0  0  0  0  0  0
   -9.8968    6.5118    0.0000 O   0  0  0  0  0  0  0  0  0  0  0  0
  -10.7785    5.2983    0.0000 C   0  0  0  0  0  0  0  0  0  0  0  0
  -12.2051    4.8348    0.0000 O   0  0  0  0  0  0  0  0  0  0  0  0
  -12.2051    3.3348    0.0000 C   0  0  0  0  0  0  0  0  0  0  0  0
  -10.7785    2.8712    0.0000 C   0  0  0  0  0  0  0  0  0  0  0  0
   -9.8968    4.0848    0.0000 C   0  0  0  0  0  0  0  0  0  0  0  0
  1  2  1  0
  2  3  1  0
  2  4  1  0
  2  5  1  0
  5  6  1  0
  6  7  2  0
  6  8  1  0
  8  9  1  0
  9 10  1  0
 10 11  1  0
 11 12  1  0
 12 13  1  0
 13 14  1  0
 14 15  1  0
 15 16  1  0
 16 17  2  0
 16 18  1  0
 18 19  1  0
 19 20  1  0
 20 21  1  0
 21 22  2  0
 22 23  1  0
 23 24  2  0
 24 25  1  0
 25 26  2  0
 19 27  1  0
 27 28  2  0
 27 29  1  0
 29 30  1  0
 30 31  1  0
 31 32  1  0
 32 33  2  0
 33 34  1  0
 34 35  2  0
 35 36  1  0
 36 37  2  0
 30 38  1  0
 38 39  2  0
 38 40  1  0
 13 41  1  0
 41 42  1  0
 42 43  1  0
 43 44  1  0
 43 45  1  0
 45 46  1  0
 46 47  1  0
 47 48  2  0
 48 49  1  0
 49 50  2  0
 50 51  1  0
 51 52  2  0
 45 53  1  0
 53 54  1  0
 54 55  2  0
 54 56  1  0
 56 57  1  0
 57 58  1  0
 58 59  1  0
 59 60  1  0
 60 61  1  0
 61 62  1  0
 62 63  1  0
 63 64  1  0
 15  8  1  0
 26 21  1  0
 37 32  1  0
 52 47  1  0
 64 57  1  0
 41 10  1  0
 64 60  1  0
M  END
>  <Title>  (27) 
idAABAgen7

$$$$

     RDKit          2D

 42 45  0  0  0  0  0  0  0  0999 V2000
   -9.3479    5.3203    0.0000 C   0  0  0  0  0  0  0  0  0  0  0  0
   -8.5594    6.5963    0.0000 N   0  0  0  0  0  0  0  0  0  0  0  0
   -9.0957    7.1860    0.0000 C   0  0  0  0  0  0  0  0  0  0  0  0
   -7.0600    6.5514    0.0000 C   0  0  0  0  0  0  0  0  0  0  0  0
   -6.2715    7.8275    0.0000 C   0  0  0  0  0  0  0  0  0  0  0  0
   -6.9823    9.1483    0.0000 C   0  0  0  0  0  0  0  0  0  0  0  0
   -8.4816    9.1932    0.0000 C   0  0  0  0  0  0  0  0  0  0  0  0
   -9.1924   10.5141    0.0000 C   0  0  0  0  0  0  0  0  0  0  0  0
  -10.6918   10.5590    0.0000 C   0  0  0  0  0  0  0  0  0  0  0  0
  -11.4803    9.2830    0.0000 C   0  0  0  0  0  0  0  0  0  0  0  0
  -10.7695    7.9621    0.0000 C   0  0  0  0  0  0  0  0  0  0  0  0
   -9.2702    7.9172    0.0000 C   0  0  0  0  0  0  0  0  0  0  0  0
   -4.7722    7.7826    0.0000 N   0  0  0  0  0  0  0  0  0  0  0  0
   -4.0614    6.4617    0.0000 C   0  0  0  0  0  0  0  0  0  0  0  0
   -4.8499    5.1857    0.0000 O   0  0  0  0  0  0  0  0  0  0  0  0
   -2.5620    6.4168    0.0000 C   0  0  0  0  0  0  0  0  0  0  0  0
   -1.7735    7.6928    0.0000 C   0  0  0  0  0  0  0  0  0  0  0  0
   -2.4843    9.0137    0.0000 C   0  0  0  0  0  0  0  0  0  0  0  0
   -1.6958   10.2897    0.0000 C   0  0  0  0  0  0  0  0  0  0  0  0
   -2.4066   11.6106    0.0000 C   0  0  0  0  0  0  0  0  0  0  0  0
   -3.9059   11.6555    0.0000 C   0  0  0  0  0  0  0  0  0  0  0  0
   -4.6944   10.3795    0.0000 C   0  0  0  0  0  0  0  0  0  0  0  0
   -3.9836    9.0586    0.0000 C   0  0  0  0  0  0  0  0  0  0  0  0
   -1.8512    5.0959    0.0000 N   0  0  0  0  0  0  0  0  0  0  0  0
   -2.6398    3.8199    0.0000 C   0  0  0  0  0  0  0  0  0  0  0  0
   -4.1391    3.8648    0.0000 O   0  0  0  0  0  0  0  0  0  0  0  0
   -1.9290    2.4990    0.0000 C   0  0  0  0  0  0  0  0  0  0  0  0
   -0.4305    2.5663    0.0000 C   0  0  0  0  0  0  0  0  0  0  0  0
    0.3943    1.2135    0.0000 C   0  0  0  0  0  0  0  0  0  0  0  0
    1.2760    0.0000    0.0000 C   0  0  0  0  0  0  0  0  0  0  0  0
    0.3943   -1.2135    0.0000 C   0  0  0  0  0  0  0  0  0  0  0  0
   -1.0323   -0.7500    0.0000 C   0  0  0  0  0  0  0  0  0  0  0  0
   -1.0323    0.7500    0.0000 C   0  0  0  0  0  0  0  0  0  0  0  0
   -2.4116   -0.1605    0.0000 C   0  0  0  0  0  0  0  0  0  0  0  0
   -2.8106    1.2855    0.0000 C   0  0  0  0  0  0  0  0  0  0  0  0
   -4.2865    1.5533    0.0000 C   0  0  0  0  0  0  0  0  0  0  0  0
   -4.7925    2.9654    0.0000 O   0  0  0  0  0  0  0  0  0  0  0  0
   -5.2564    0.4091    0.0000 N   0  0  0  0  0  0  0  0  0  0  0  0
   -6.7323    0.6769    0.0000 C   0  0  0  0  0  0  0  0  0  0  0  0
   -7.0002   -0.7990    0.0000 C   0  0  0  0  0  0  0  0  0  0  0  0
   -6.4645    2.1528    0.0000 C   0  0  0  0  0  0  0  0  0  0  0  0
   -8.2082    0.9447    0.0000 C   0  0  0  0  0  0  0  0  0  0  0  0
  1  2  1  0
  2  3  1  0
  2  4  1  0
  4  5  1  0
  5  6  1  0
  6  7  1  0
  7  8  2  0
  8  9  1  0
  9 10  2  0
 10 11  1  0
 11 12  2  0
  5 13  1  0
 13 14  1  0
 14 15  2  0
 14 16  1  0
 16 17  1  0
 17 18  1  0
 18 19  2  0
 19 20  1  0
 20 21  2  0
 21 22  1  0
 22 23  2  0
 16 24  1  0
 24 25  1  0
 25 26  2  0
 25 27  1  0
 27 28  1  0
 28 29  1  0
 29 30  1  0
 30 31  1  0
 31 32  1  0
 32 33  1  0
 32 34  1  0
 34 35  1  0
 35 36  1  0
 36 37  2  0
 36 38  1  0
 38 39  1  0
 39 40  1  0
 39 41  1  0
 39 42  1  0
 12  7  1  0
 23 18  1  0
 35 27  1  0
 33 29  1  0
M  END
>  <Title>  (28) 
idAABBgen7

$$$$

     RDKit          2D

 28 30  0  0  0  0  0  0  0  0999 V2000
    5.2500   -2.7990    0.0000 C   0  0  0  0  0  0  0  0  0  0  0  0
    5.2500   -1.2990    0.0000 C   0  0  0  0  0  0  0  0  0  0  0  0
    5.2500    0.2010    0.0000 C   0  0  0  0  0  0  0  0  0  0  0  0
    6.7500   -1.2990    0.0000 C   0  0  0  0  0  0  0  0  0  0  0  0
    3.7500   -1.2990    0.0000 C   0  0  0  0  0  0  0  0  0  0  0  0
    3.0000    0.0000    0.0000 C   0  0  0  0  0  0  0  0  0  0  0  0
    3.7500    1.2990    0.0000 O   0  0  0  0  0  0  0  0  0  0  0  0
    1.5000    0.0000    0.0000 N   0  0  0  0  0  0  0  0  0  0  0  0
    0.7500   -1.2990    0.0000 C   0  0  0  0  0  0  0  0  0  0  0  0
   -0.7500   -1.2990    0.0000 C   0  0  0  0  0  0  0  0  0  0  0  0
   -1.5000    0.0000    0.0000 N   0  0  0  0  0  0  0  0  0  0  0  0
   -3.0000    0.0000    0.0000 C   0  0  0  0  0  0  0  0  0  0  0  0
   -3.7500   -1.2990    0.0000 O   0  0  0  0  0  0  0  0  0  0  0  0
   -3.7500    1.2990    0.0000 C   0  0  0  0  0  0  0  0  0  0  0  0
   -5.2500    1.2990    0.0000 C   0  0  0  0  0  0  0  0  0  0  0  0
   -6.0000    2.5981    0.0000 C   0  0  0  0  0  0  0  0  0  0  0  0
   -7.5000    2.5981    0.0000 C   0  0  0  0  0  0  0  0  0  0  0  0
   -8.2500    1.2990    0.0000 C   0  0  0  0  0  0  0  0  0  0  0  0
   -9.7500    1.2990    0.0000 C   0  0  0  0  0  0  0  0  0  0  0  0
  -10.5000    2.5981    0.0000 C   0  0  0  0  0  0  0  0  0  0  0  0
  -12.0000    2.5981    0.0000 C   0  0  0  0  0  0  0  0  0  0  0  0
  -12.7500    1.2990    0.0000 C   0  0  0  0  0  0  0  0  0  0  0  0
  -12.0000    0.0000    0.0000 C   0  0  0  0  0  0  0  0  0  0  0  0
  -10.5000    0.0000    0.0000 N   0  0  0  0  0  0  0  0  0  0  0  0
   -7.5000    0.0000    0.0000 C   0  0  0  0  0  0  0  0  0  0  0  0
   -6.0000    0.0000    0.0000 C   0  0  0  0  0  0  0  0  0  0  0  0
   -0.7500    1.2990    0.0000 C   0  0  0  0  0  0  0  0  0  0  0  0
    0.7500    1.2990    0.0000 C   0  0  0  0  0  0  0  0  0  0  0  0
  1  2  1  0
  2  3  1  0
  2  4  1  0
  2  5  1  0
  5  6  1  0
  6  7  2  0
  6  8  1  0
  8  9  1  0
  9 10  1  0
 10 11  1  0
 11 12  1  0
 12 13  2  0
 12 14  1  0
 14 15  1  0
 15 16  2  0
 16 17  1  0
 17 18  2  0
 18 19  1  0
 19 20  2  0
 20 21  1  0
 21 22  2  0
 22 23  1  0
 23 24  2  0
 18 25  1  0
 25 26  2  0
 11 27  1  0
 27 28  1  0
 28  8  1  0
 26 15  1  0
 24 19  1  0
M  END
>  <Title>  (29) 
idAABCgen7

$$$$

     RDKit          2D

 74 81  0  0  0  0  0  0  0  0999 V2000
   -1.9357    7.4697    0.0000 C   0  0  0  0  0  0  0  0  0  0  0  0
   -2.7242    6.1936    0.0000 C   0  0  0  0  0  0  0  0  0  0  0  0
   -4.1681    6.6000    0.0000 C   0  0  0  0  0  0  0  0  0  0  0  0
   -2.0134    4.8727    0.0000 N   0  0  0  0  0  0  0  0  0  0  0  0
   -2.8019    3.5967    0.0000 C   0  0  0  0  0  0  0  0  0  0  0  0
   -4.2675    3.2775    0.0000 O   0  0  0  0  0  0  0  0  0  0  0  0
   -2.0911    2.2758    0.0000 C   0  0  0  0  0  0  0  0  0  0  0  0
   -0.5926    2.3431    0.0000 C   0  0  0  0  0  0  0  0  0  0  0  0
    0.3943    1.2135    0.0000 C   0  0  0  0  0  0  0  0  0  0  0  0
    1.2760    0.0000    0.0000 C   0  0  0  0  0  0  0  0  0  0  0  0
    0.3943   -1.2135    0.0000 C   0  0  0  0  0  0  0  0  0  0  0  0
   -1.0323   -0.7500    0.0000 C   0  0  0  0  0  0  0  0  0  0  0  0
   -2.5737   -0.3836    0.0000 C   0  0  0  0  0  0  0  0  0  0  0  0
   -2.9728    1.0623    0.0000 C   0  0  0  0  0  0  0  0  0  0  0  0
   -4.4487    1.3301    0.0000 C   0  0  0  0  0  0  0  0  0  0  0  0
   -5.2813    2.5778    0.0000 O   0  0  0  0  0  0  0  0  0  0  0  0
   -5.4186    0.1859    0.0000 N   0  0  0  0  0  0  0  0  0  0  0  0
   -6.8945    0.4537    0.0000 C   0  0  0  0  0  0  0  0  0  0  0  0
   -7.8644   -0.6905    0.0000 C   0  0  0  0  0  0  0  0  0  0  0  0
   -9.3403   -0.4227    0.0000 C   0  0  0  0  0  0  0  0  0  0  0  0
   -9.8463    0.9894    0.0000 C   0  0  0  0  0  0  0  0  0  0  0  0
  -11.3221    1.2572    0.0000 C   0  0  0  0  0  0  0  0  0  0  0  0
  -12.2920    0.1130    0.0000 C   0  0  0  0  0  0  0  0  0  0  0  0
  -11.7861   -1.2991    0.0000 C   0  0  0  0  0  0  0  0  0  0  0  0
  -10.3102   -1.5669    0.0000 C   0  0  0  0  0  0  0  0  0  0  0  0
   -7.4005    1.8658    0.0000 C   0  0  0  0  0  0  0  0  0  0  0  0
   -6.4306    3.0101    0.0000 O   0  0  0  0  0  0  0  0  0  0  0  0
   -8.8764    2.1337    0.0000 N   0  0  0  0  0  0  0  0  0  0  0  0
   -9.3823    3.5457    0.0000 C   0  0  0  0  0  0  0  0  0  0  0  0
  -10.8582    3.8136    0.0000 C   0  0  0  0  0  0  0  0  0  0  0  0
  -11.3642    5.2256    0.0000 C   0  0  0  0  0  0  0  0  0  0  0  0
  -10.3943    6.3699    0.0000 C   0  0  0  0  0  0  0  0  0  0  0  0
  -10.9003    7.7820    0.0000 C   0  0  0  0  0  0  0  0  0  0  0  0
  -12.3762    8.0498    0.0000 C   0  0  0  0  0  0  0  0  0  0  0  0
  -13.3461    6.9056    0.0000 C   0  0  0  0  0  0  0  0  0  0  0  0
  -12.8401    5.4935    0.0000 C   0  0  0  0  0  0  0  0  0  0  0  0
   -8.4125    4.6900    0.0000 C   0  0  0  0  0  0  0  0  0  0  0  0
   -7.0452    4.0730    0.0000 O   0  0  0  0  0  0  0  0  0  0  0  0
   -8.9184    6.1021    0.0000 N   0  0  0  0  0  0  0  0  0  0  0  0
   -7.9485    7.2463    0.0000 C   0  0  0  0  0  0  0  0  0  0  0  0
   -8.4545    8.6584    0.0000 C   0  0  0  0  0  0  0  0  0  0  0  0
   -7.4846    9.8026    0.0000 C   0  0  0  0  0  0  0  0  0  0  0  0
   -6.0087    9.5348    0.0000 C   0  0  0  0  0  0  0  0  0  0  0  0
   -5.0388   10.6790    0.0000 C   0  0  0  0  0  0  0  0  0  0  0  0
   -5.5448   12.0911    0.0000 C   0  0  0  0  0  0  0  0  0  0  0  0
   -7.0207   12.3589    0.0000 C   0  0  0  0  0  0  0  0  0  0  0  0
   -7.9906   11.2147    0.0000 C   0  0  0  0  0  0  0  0  0  0  0  0
   -6.4727    6.9785    0.0000 C   0  0  0  0  0  0  0  0  0  0  0  0
   -6.1426    5.5152    0.0000 O   0  0  0  0  0  0  0  0  0  0  0  0
   -5.8085    8.3234    0.0000 O   0  0  0  0  0  0  0  0  0  0  0  0
   -1.0323    0.7500    0.0000 C   0  0  0  0  0  0  0  0  0  0  0  0
   -2.2458    1.6317    0.0000 C   0  0  0  0  0  0  0  0  0  0  0  0
   -2.0890    3.1235    0.0000 C   0  0  0  0  0  0  0  0  0  0  0  0
   -0.7187    3.7336    0.0000 O   0  0  0  0  0  0  0  0  0  0  0  0
   -3.3025    4.0051    0.0000 C   0  0  0  0  0  0  0  0  0  0  0  0
   -3.1458    5.4969    0.0000 C   0  0  0  0  0  0  0  0  0  0  0  0
   -4.3593    6.3786    0.0000 C   0  0  0  0  0  0  0  0  0  0  0  0
   -4.2025    7.8704    0.0000 C   0  0  0  0  0  0  0  0  0  0  0  0
   -5.4160    8.7521    0.0000 C   0  0  0  0  0  0  0  0  0  0  0  0
   -6.7863    8.1420    0.0000 C   0  0  0  0  0  0  0  0  0  0  0  0
   -6.9431    6.6502    0.0000 C   0  0  0  0  0  0  0  0  0  0  0  0
   -5.7296    5.7685    0.0000 C   0  0  0  0  0  0  0  0  0  0  0  0
   -4.6729    3.3950    0.0000 N   0  0  0  0  0  0  0  0  0  0  0  0
   -5.8864    4.2767    0.0000 C   0  0  0  0  0  0  0  0  0  0  0  0
   -5.9126    5.7765    0.0000 O   0  0  0  0  0  0  0  0  0  0  0  0
   -7.2567    3.6666    0.0000 O   0  0  0  0  0  0  0  0  0  0  0  0
   -8.4702    4.5483    0.0000 C   0  0  0  0  0  0  0  0  0  0  0  0
   -8.4702    6.0483    0.0000 C   0  0  0  0  0  0  0  0  0  0  0  0
   -9.8968    6.5118    0.0000 O   0  0  0  0  0  0  0  0  0  0  0  0
  -10.7785    5.2983    0.0000 C   0  0  0  0  0  0  0  0  0  0  0  0
  -12.2051    4.8348    0.0000 O   0  0  0  0  0  0  0  0  0  0  0  0
  -12.2051    3.3348    0.0000 C   0  0  0  0  0  0  0  0  0  0  0  0
  -10.7785    2.8712    0.0000 C   0  0  0  0  0  0  0  0  0  0  0  0
   -9.8968    4.0848    0.0000 C   0  0  0  0  0  0  0  0  0  0  0  0
  1  2  1  0
  2  3  1  0
  2  4  1  0
  4  5  1  0
  5  6  2  0
  5  7  1  0
  7  8  1  0
  8  9  1  0
  9 10  1  0
 10 11  1  0
 11 12  1  0
 12 13  1  0
 13 14  1  0
 14 15  1  0
 15 16  2  0
 15 17  1  0
 17 18  1  0
 18 19  1  0
 19 20  1  0
 20 21  2  0
 21 22  1  0
 22 23  2  0
 23 24  1  0
 24 25  2  0
 18 26  1  0
 26 27  2  0
 26 28  1  0
 28 29  1  0
 29 30  1  0
 30 31  1  0
 31 32  2  0
 32 33  1  0
 33 34  2  0
 34 35  1  0
 35 36  2  0
 29 37  1  0
 37 38  2  0
 37 39  1  0
 39 40  1  0
 40 41  1  0
 41 42  1  0
 42 43  2  0
 43 44  1  0
 44 45  2  0
 45 46  1  0
 46 47  2  0
 40 48  1  0
 48 49  2  0
 48 50  1  0
 12 51  1  0
 51 52  1  0
 52 53  1  0
 53 54  1  0
 53 55  1  0
 55 56  1  0
 56 57  1  0
 57 58  2  0
 58 59  1  0
 59 60  2  0
 60 61  1  0
 61 62  2  0
 55 63  1  0
 63 64  1  0
 64 65  2  0
 64 66  1  0
 66 67  1  0
 67 68  1  0
 68 69  1  0
 69 70  1  0
 70 71  1  0
 71 72  1  0
 72 73  1  0
 73 74  1  0
 14  7  1  0
 25 20  1  0
 36 31  1  0
 47 42  1  0
 62 57  1  0
 74 67  1  0
 51  9  1  0
 74 70  1  0
M  END
>  <Title>  (30) 
idAABDgen7

$$$$

     RDKit          2D

 18 18  0  0  0  0  0  0  0  0999 V2000
    5.2776   -0.5490    0.0000 C   0  0  0  0  0  0  0  0  0  0  0  0
    3.9786   -1.2990    0.0000 C   0  0  0  0  0  0  0  0  0  0  0  0
    2.6795   -2.0490    0.0000 C   0  0  0  0  0  0  0  0  0  0  0  0
    4.7286   -2.5981    0.0000 C   0  0  0  0  0  0  0  0  0  0  0  0
    3.2286   -0.0000    0.0000 C   0  0  0  0  0  0  0  0  0  0  0  0
    1.7286    0.0000    0.0000 C   0  0  0  0  0  0  0  0  0  0  0  0
    1.0777    1.3515    0.0000 C   0  0  0  0  0  0  0  0  0  0  0  0
   -0.3846    1.6852    0.0000 C   0  0  0  0  0  0  0  0  0  0  0  0
   -1.5574    0.7500    0.0000 C   0  0  0  0  0  0  0  0  0  0  0  0
   -1.5574   -0.7500    0.0000 C   0  0  0  0  0  0  0  0  0  0  0  0
   -2.2082   -2.1015    0.0000 C   0  0  0  0  0  0  0  0  0  0  0  0
   -3.0198   -0.4162    0.0000 C   0  0  0  0  0  0  0  0  0  0  0  0
   -0.3846   -1.6852    0.0000 C   0  0  0  0  0  0  0  0  0  0  0  0
   -0.7184   -3.1476    0.0000 C   0  0  0  0  0  0  0  0  0  0  0  0
   -2.1808   -2.8138    0.0000 C   0  0  0  0  0  0  0  0  0  0  0  0
    0.7440   -3.4814    0.0000 C   0  0  0  0  0  0  0  0  0  0  0  0
   -1.0522   -4.6100    0.0000 C   0  0  0  0  0  0  0  0  0  0  0  0
    1.0777   -1.3515    0.0000 C   0  0  0  0  0  0  0  0  0  0  0  0
  1  2  1  0
  2  3  1  0
  2  4  1  0
  2  5  1  0
  5  6  1  0
  6  7  1  0
  7  8  1  0
  8  9  1  0
  9 10  1  0
 10 11  1  0
 10 12  1  0
 10 13  1  0
 13 14  1  0
 14 15  1  0
 14 16  1  0
 14 17  1  0
 13 18  1  0
 18  6  1  0
M  END
>  <Title>  (31) 
idAABEgen7

$$$$

     RDKit          2D

 74 80  0  0  0  0  0  0  0  0999 V2000
   -5.3823   -6.2346    0.0000 C   0  0  0  0  0  0  0  0  0  0  0  0
   -4.3786   -5.1199    0.0000 C   0  0  0  0  0  0  0  0  0  0  0  0
   -3.3749   -4.0052    0.0000 C   0  0  0  0  0  0  0  0  0  0  0  0
   -3.2638   -6.1236    0.0000 C   0  0  0  0  0  0  0  0  0  0  0  0
   -5.4933   -4.1162    0.0000 C   0  0  0  0  0  0  0  0  0  0  0  0
   -5.1814   -2.6490    0.0000 C   0  0  0  0  0  0  0  0  0  0  0  0
   -3.7548   -2.1855    0.0000 N   0  0  0  0  0  0  0  0  0  0  0  0
   -3.4430   -0.7182    0.0000 S   0  0  0  0  0  0  0  0  0  0  0  0
   -4.9102   -0.4064    0.0000 O   0  0  0  0  0  0  0  0  0  0  0  0
   -1.9757   -1.0301    0.0000 O   0  0  0  0  0  0  0  0  0  0  0  0
   -3.1311    0.7490    0.0000 C   0  0  0  0  0  0  0  0  0  0  0  0
   -4.2458    1.7527    0.0000 C   0  0  0  0  0  0  0  0  0  0  0  0
   -3.9339    3.2199    0.0000 C   0  0  0  0  0  0  0  0  0  0  0  0
   -2.5074    3.6834    0.0000 C   0  0  0  0  0  0  0  0  0  0  0  0
   -1.3926    2.6797    0.0000 C   0  0  0  0  0  0  0  0  0  0  0  0
   -1.7045    1.2125    0.0000 C   0  0  0  0  0  0  0  0  0  0  0  0
   -6.2961   -1.6453    0.0000 C   0  0  0  0  0  0  0  0  0  0  0  0
   -7.7227   -2.1088    0.0000 O   0  0  0  0  0  0  0  0  0  0  0  0
   -5.9843   -0.1781    0.0000 N   0  0  0  0  0  0  0  0  0  0  0  0
   -7.0990    0.8256    0.0000 C   0  0  0  0  0  0  0  0  0  0  0  0
   -6.7871    2.2929    0.0000 C   0  0  0  0  0  0  0  0  0  0  0  0
   -7.9018    3.2966    0.0000 C   0  0  0  0  0  0  0  0  0  0  0  0
   -9.3284    2.8330    0.0000 C   0  0  0  0  0  0  0  0  0  0  0  0
  -10.4431    3.8367    0.0000 C   0  0  0  0  0  0  0  0  0  0  0  0
  -10.1313    5.3039    0.0000 C   0  0  0  0  0  0  0  0  0  0  0  0
   -8.7047    5.7675    0.0000 C   0  0  0  0  0  0  0  0  0  0  0  0
   -7.5900    4.7638    0.0000 C   0  0  0  0  0  0  0  0  0  0  0  0
   -8.5256    0.3621    0.0000 C   0  0  0  0  0  0  0  0  0  0  0  0
   -9.6403    1.3658    0.0000 O   0  0  0  0  0  0  0  0  0  0  0  0
   -8.8374   -1.1051    0.0000 N   0  0  0  0  0  0  0  0  0  0  0  0
  -10.2640   -1.5686    0.0000 C   0  0  0  0  0  0  0  0  0  0  0  0
  -11.3787   -0.5649    0.0000 C   0  0  0  0  0  0  0  0  0  0  0  0
  -12.8053   -1.0285    0.0000 C   0  0  0  0  0  0  0  0  0  0  0  0
  -13.1172   -2.4957    0.0000 C   0  0  0  0  0  0  0  0  0  0  0  0
  -14.5438   -2.9592    0.0000 C   0  0  0  0  0  0  0  0  0  0  0  0
  -15.6585   -1.9555    0.0000 C   0  0  0  0  0  0  0  0  0  0  0  0
  -15.3466   -0.4883    0.0000 C   0  0  0  0  0  0  0  0  0  0  0  0
  -13.9200   -0.0248    0.0000 C   0  0  0  0  0  0  0  0  0  0  0  0
  -10.5759   -3.0359    0.0000 C   0  0  0  0  0  0  0  0  0  0  0  0
  -12.0025   -3.4994    0.0000 O   0  0  0  0  0  0  0  0  0  0  0  0
   -9.4612   -4.0396    0.0000 N   0  0  0  0  0  0  0  0  0  0  0  0
   -9.7730   -5.5068    0.0000 C   0  0  0  0  0  0  0  0  0  0  0  0
  -11.1996   -5.9703    0.0000 C   0  0  0  0  0  0  0  0  0  0  0  0
  -11.5115   -7.4375    0.0000 C   0  0  0  0  0  0  0  0  0  0  0  0
  -10.3968   -8.4412    0.0000 C   0  0  0  0  0  0  0  0  0  0  0  0
  -10.7086   -9.9084    0.0000 C   0  0  0  0  0  0  0  0  0  0  0  0
  -12.1352  -10.3720    0.0000 C   0  0  0  0  0  0  0  0  0  0  0  0
  -13.2499   -9.3683    0.0000 C   0  0  0  0  0  0  0  0  0  0  0  0
  -12.9381   -7.9010    0.0000 C   0  0  0  0  0  0  0  0  0  0  0  0
   -8.6583   -6.5105    0.0000 C   0  0  0  0  0  0  0  0  0  0  0  0
   -8.9702   -7.9777    0.0000 O   0  0  0  0  0  0  0  0  0  0  0  0
   -7.2317   -6.0469    0.0000 N   0  0  0  0  0  0  0  0  0  0  0  0
   -6.1170   -7.0506    0.0000 C   0  0  0  0  0  0  0  0  0  0  0  0
   -4.6904   -6.5871    0.0000 C   0  0  0  0  0  0  0  0  0  0  0  0
   -3.5757   -7.5908    0.0000 C   0  0  0  0  0  0  0  0  0  0  0  0
   -3.8876   -9.0580    0.0000 C   0  0  0  0  0  0  0  0  0  0  0  0
   -2.7729  -10.0617    0.0000 C   0  0  0  0  0  0  0  0  0  0  0  0
   -1.3463   -9.5982    0.0000 C   0  0  0  0  0  0  0  0  0  0  0  0
   -1.0344   -8.1310    0.0000 C   0  0  0  0  0  0  0  0  0  0  0  0
   -2.1491   -7.1273    0.0000 C   0  0  0  0  0  0  0  0  0  0  0  0
   -6.4289   -8.5179    0.0000 C   0  0  0  0  0  0  0  0  0  0  0  0
   -7.8555   -8.9814    0.0000 O   0  0  0  0  0  0  0  0  0  0  0  0
   -5.3142   -9.5216    0.0000 N   0  0  0  0  0  0  0  0  0  0  0  0
   -5.6260  -10.9888    0.0000 C   0  0  0  0  0  0  0  0  0  0  0  0
   -4.5113  -11.9925    0.0000 C   0  0  0  0  0  0  0  0  0  0  0  0
   -4.8232  -13.4597    0.0000 C   0  0  0  0  0  0  0  0  0  0  0  0
   -6.1935  -14.0698    0.0000 C   0  0  0  0  0  0  0  0  0  0  0  0
   -6.0367  -15.5616    0.0000 N   0  0  0  0  0  0  0  0  0  0  0  0
   -4.5695  -15.8735    0.0000 C   0  0  0  0  0  0  0  0  0  0  0  0
   -3.8195  -17.1725    0.0000 C   0  0  0  0  0  0  0  0  0  0  0  0
   -2.3195  -17.1725    0.0000 C   0  0  0  0  0  0  0  0  0  0  0  0
   -1.5695  -15.8735    0.0000 C   0  0  0  0  0  0  0  0  0  0  0  0
   -2.3195  -14.5744    0.0000 C   0  0  0  0  0  0  0  0  0  0  0  0
   -3.8195  -14.5744    0.0000 C   0  0  0  0  0  0  0  0  0  0  0  0
  1  2  1  0
  2  3  1  0
  2  4  1  0
  2  5  1  0
  5  6  1  0
  6  7  1  0
  7  8  1  0
  8  9  2  0
  8 10  2  0
  8 11  1  0
 11 12  2  0
 12 13  1  0
 13 14  2  0
 14 15  1  0
 15 16  2  0
  6 17  1  0
 17 18  2  0
 17 19  1  0
 19 20  1  0
 20 21  1  0
 21 22  1  0
 22 23  2  0
 23 24  1  0
 24 25  2  0
 25 26  1  0
 26 27  2  0
 20 28  1  0
 28 29  2  0
 28 30  1  0
 30 31  1  0
 31 32  1  0
 32 33  1  0
 33 34  2  0
 34 35  1  0
 35 36  2  0
 36 37  1  0
 37 38  2  0
 31 39  1  0
 39 40  2  0
 39 41  1  0
 41 42  1  0
 42 43  1  0
 43 44  1  0
 44 45  2  0
 45 46  1  0
 46 47  2  0
 47 48  1  0
 48 49  2  0
 42 50  1  0
 50 51  2  0
 50 52  1  0
 52 53  1  0
 53 54  1  0
 54 55  1  0
 55 56  2  0
 56 57  1  0
 57 58  2  0
 58 59  1  0
 59 60  2  0
 53 61  1  0
 61 62  2  0
 61 63  1  0
 63 64  1  0
 64 65  1  0
 65 66  1  0
 66 67  2  0
 67 68  1  0
 68 69  1  0
 69 70  2  0
 70 71  1  0
 71 72  2  0
 72 73  1  0
 73 74  2  0
 16 11  1  0
 27 22  1  0
 38 33  1  0
 49 44  1  0
 60 55  1  0
 74 66  1  0
 74 69  1  0
M  END
>  <Title>  (32) 
idAABFgen7

$$$$

     RDKit          2D

 65 70  0  0  0  0  0  0  0  0999 V2000
   -7.9140    5.6597    0.0000 C   0  0  0  0  0  0  0  0  0  0  0  0
   -7.9140    7.1597    0.0000 C   0  0  0  0  0  0  0  0  0  0  0  0
   -7.9140    8.6597    0.0000 C   0  0  0  0  0  0  0  0  0  0  0  0
   -9.4140    7.1597    0.0000 C   0  0  0  0  0  0  0  0  0  0  0  0
   -6.4140    7.1597    0.0000 C   0  0  0  0  0  0  0  0  0  0  0  0
   -5.6640    8.4587    0.0000 C   0  0  0  0  0  0  0  0  0  0  0  0
   -6.4140    9.7578    0.0000 N   0  0  0  0  0  0  0  0  0  0  0  0
   -5.6640   11.0568    0.0000 C   0  0  0  0  0  0  0  0  0  0  0  0
   -4.1640   11.0568    0.0000 O   0  0  0  0  0  0  0  0  0  0  0  0
   -6.4140   12.3558    0.0000 C   0  0  0  0  0  0  0  0  0  0  0  0
   -7.9140   12.3558    0.0000 C   0  0  0  0  0  0  0  0  0  0  0  0
   -8.6640   11.0568    0.0000 C   0  0  0  0  0  0  0  0  0  0  0  0
   -7.9140    9.7578    0.0000 C   0  0  0  0  0  0  0  0  0  0  0  0
   -8.6640    8.4587    0.0000 C   0  0  0  0  0  0  0  0  0  0  0  0
  -10.1640    8.4587    0.0000 C   0  0  0  0  0  0  0  0  0  0  0  0
  -10.9140    9.7578    0.0000 C   0  0  0  0  0  0  0  0  0  0  0  0
  -10.1640   11.0568    0.0000 C   0  0  0  0  0  0  0  0  0  0  0  0
   -5.6640   13.6549    0.0000 N   0  0  0  0  0  0  0  0  0  0  0  0
   -4.1640   13.6549    0.0000 C   0  0  0  0  0  0  0  0  0  0  0  0
   -3.4140   12.3558    0.0000 O   0  0  0  0  0  0  0  0  0  0  0  0
   -3.4140   14.9539    0.0000 O   0  0  0  0  0  0  0  0  0  0  0  0
   -1.9140   14.9539    0.0000 C   0  0  0  0  0  0  0  0  0  0  0  0
   -1.0323   13.7404    0.0000 C   0  0  0  0  0  0  0  0  0  0  0  0
    0.3943   14.2039    0.0000 O   0  0  0  0  0  0  0  0  0  0  0  0
    0.3943   15.7039    0.0000 C   0  0  0  0  0  0  0  0  0  0  0  0
    1.2760   16.9174    0.0000 O   0  0  0  0  0  0  0  0  0  0  0  0
    0.3943   18.1310    0.0000 C   0  0  0  0  0  0  0  0  0  0  0  0
   -1.0323   17.6674    0.0000 C   0  0  0  0  0  0  0  0  0  0  0  0
   -1.0323   16.1674    0.0000 C   0  0  0  0  0  0  0  0  0  0  0  0
   -4.1640    8.4587    0.0000 S   0  0  0  0  0  0  0  0  0  0  0  0
   -4.1640    6.9587    0.0000 O   0  0  0  0  0  0  0  0  0  0  0  0
   -4.1640    9.9587    0.0000 O   0  0  0  0  0  0  0  0  0  0  0  0
   -2.6640    8.4587    0.0000 C   0  0  0  0  0  0  0  0  0  0  0  0
   -1.9140    7.1597    0.0000 C   0  0  0  0  0  0  0  0  0  0  0  0
   -0.4140    7.1597    0.0000 C   0  0  0  0  0  0  0  0  0  0  0  0
    0.3360    8.4587    0.0000 C   0  0  0  0  0  0  0  0  0  0  0  0
    1.8360    8.4587    0.0000 N   0  0  0  0  0  0  0  0  0  0  0  0
    2.5860    7.1597    0.0000 C   0  0  0  0  0  0  0  0  0  0  0  0
    1.8360    5.8606    0.0000 O   0  0  0  0  0  0  0  0  0  0  0  0
    4.0860    7.1597    0.0000 C   0  0  0  0  0  0  0  0  0  0  0  0
    4.8360    8.4587    0.0000 O   0  0  0  0  0  0  0  0  0  0  0  0
    4.8360    5.8606    0.0000 C   0  0  0  0  0  0  0  0  0  0  0  0
    6.3360    5.8606    0.0000 C   0  0  0  0  0  0  0  0  0  0  0  0
    7.0860    4.5616    0.0000 C   0  0  0  0  0  0  0  0  0  0  0  0
    6.3360    3.2626    0.0000 C   0  0  0  0  0  0  0  0  0  0  0  0
    7.0860    1.9635    0.0000 C   0  0  0  0  0  0  0  0  0  0  0  0
    8.5860    1.9635    0.0000 C   0  0  0  0  0  0  0  0  0  0  0  0
    9.3360    3.2626    0.0000 C   0  0  0  0  0  0  0  0  0  0  0  0
    8.5860    4.5616    0.0000 N   0  0  0  0  0  0  0  0  0  0  0  0
    4.0860    4.5616    0.0000 C   0  0  0  0  0  0  0  0  0  0  0  0
    2.5860    4.5616    0.0000 O   0  0  0  0  0  0  0  0  0  0  0  0
    4.8360    3.2626    0.0000 N   0  0  0  0  0  0  0  0  0  0  0  0
    4.0860    1.9635    0.0000 C   0  0  0  0  0  0  0  0  0  0  0  0
    4.8360    0.6645    0.0000 C   0  0  0  0  0  0  0  0  0  0  0  0
    4.0860   -0.6346    0.0000 C   0  0  0  0  0  0  0  0  0  0  0  0
    2.5860   -0.6346    0.0000 C   0  0  0  0  0  0  0  0  0  0  0  0
    1.8360   -1.9336    0.0000 C   0  0  0  0  0  0  0  0  0  0  0  0
    2.5860   -3.2326    0.0000 C   0  0  0  0  0  0  0  0  0  0  0  0
    4.0860   -3.2326    0.0000 C   0  0  0  0  0  0  0  0  0  0  0  0
    4.8360   -1.9336    0.0000 C   0  0  0  0  0  0  0  0  0  0  0  0
    2.5860    1.9635    0.0000 C   0  0  0  0  0  0  0  0  0  0  0  0
    1.8360    3.2626    0.0000 O   0  0  0  0  0  0  0  0  0  0  0  0
    1.8360    0.6645    0.0000 O   0  0  0  0  0  0  0  0  0  0  0  0
   -0.4140    9.7578    0.0000 C   0  0  0  0  0  0  0  0  0  0  0  0
   -1.9140    9.7578    0.0000 C   0  0  0  0  0  0  0  0  0  0  0  0
  1  2  1  0
  2  3  1  0
  2  4  1  0
  2  5  1  0
  5  6  1  0
  6  7  1  0
  7  8  1  0
  8  9  2  0
  8 10  1  0
 10 11  1  0
 11 12  1  0
 12 13  2  0
 13 14  1  0
 14 15  2  0
 15 16  1  0
 16 17  2  0
 10 18  1  0
 18 19  1  0
 19 20  2  0
 19 21  1  0
 21 22  1  0
 22 23  1  0
 23 24  1  0
 24 25  1  0
 25 26  1  0
 26 27  1  0
 27 28  1  0
 28 29  1  0
  6 30  1  0
 30 31  2  0
 30 32  2  0
 30 33  1  0
 33 34  2  0
 34 35  1  0
 35 36  2  0
 36 37  1  0
 37 38  1  0
 38 39  2  0
 38 40  1  0
 40 41  1  0
 40 42  1  0
 42 43  1  0
 43 44  1  0
 44 45  2  0
 45 46  1  0
 46 47  2  0
 47 48  1  0
 48 49  2  0
 42 50  1  0
 50 51  2  0
 50 52  1  0
 52 53  1  0
 53 54  1  0
 54 55  1  0
 55 56  2  0
 56 57  1  0
 57 58  2  0
 58 59  1  0
 59 60  2  0
 53 61  1  0
 61 62  2  0
 61 63  1  0
 36 64  1  0
 64 65  2  0
 17 12  1  0
 29 22  1  0
 65 33  1  0
 29 25  1  0
 49 44  1  0
 60 55  1  0
M  END
>  <Title>  (33) 
idAABGgen7

$$$$

     RDKit          2D

 46 51  0  0  0  0  0  0  0  0999 V2000
   -0.7500   -3.8971    0.0000 O   0  0  0  0  0  0  0  0  0  0  0  0
    0.7500   -3.8971    0.0000 C   0  0  0  0  0  0  0  0  0  0  0  0
    1.5000   -5.1962    0.0000 N   0  0  0  0  0  0  0  0  0  0  0  0
    0.7500   -6.4952    0.0000 C   0  0  0  0  0  0  0  0  0  0  0  0
    1.5000   -7.7942    0.0000 C   0  0  0  0  0  0  0  0  0  0  0  0
    2.9095   -7.2812    0.0000 C   0  0  0  0  0  0  0  0  0  0  0  0
    4.0586   -8.2454    0.0000 C   0  0  0  0  0  0  0  0  0  0  0  0
    5.4681   -7.7323    0.0000 C   0  0  0  0  0  0  0  0  0  0  0  0
    5.7286   -6.2551    0.0000 C   0  0  0  0  0  0  0  0  0  0  0  0
    4.5796   -5.2910    0.0000 C   0  0  0  0  0  0  0  0  0  0  0  0
    3.1700   -5.8040    0.0000 C   0  0  0  0  0  0  0  0  0  0  0  0
    1.7605   -9.2714    0.0000 C   0  0  0  0  0  0  0  0  0  0  0  0
    0.3509   -8.7584    0.0000 C   0  0  0  0  0  0  0  0  0  0  0  0
    1.5000   -2.5981    0.0000 N   0  0  0  0  0  0  0  0  0  0  0  0
    0.7500   -1.2990    0.0000 C   0  0  0  0  0  0  0  0  0  0  0  0
    1.5000    0.0000    0.0000 C   0  0  0  0  0  0  0  0  0  0  0  0
    0.7500    1.2990    0.0000 C   0  0  0  0  0  0  0  0  0  0  0  0
   -0.7500    1.2990    0.0000 C   0  0  0  0  0  0  0  0  0  0  0  0
   -1.5000    0.0000    0.0000 C   0  0  0  0  0  0  0  0  0  0  0  0
   -0.7500   -1.2990    0.0000 C   0  0  0  0  0  0  0  0  0  0  0  0
   -0.0000   -0.0000    0.0000 C   0  0  0  0  0  0  0  0  0  0  0  0
    0.7500   -1.2990    0.0000 C   0  0  0  0  0  0  0  0  0  0  0  0
    2.2500   -1.2990    0.0000 O   0  0  0  0  0  0  0  0  0  0  0  0
   -0.0000   -2.5981    0.0000 N   0  0  0  0  0  0  0  0  0  0  0  0
    0.7500   -3.8971    0.0000 C   0  0  0  0  0  0  0  0  0  0  0  0
   -0.0000   -5.1962    0.0000 C   0  0  0  0  0  0  0  0  0  0  0  0
    0.7500   -6.4952    0.0000 C   0  0  0  0  0  0  0  0  0  0  0  0
   -0.0000   -7.7942    0.0000 C   0  0  0  0  0  0  0  0  0  0  0  0
    0.7500   -9.0933    0.0000 C   0  0  0  0  0  0  0  0  0  0  0  0
    2.2500   -9.0933    0.0000 C   0  0  0  0  0  0  0  0  0  0  0  0
    3.0000   -7.7942    0.0000 C   0  0  0  0  0  0  0  0  0  0  0  0
    2.2500   -6.4952    0.0000 C   0  0  0  0  0  0  0  0  0  0  0  0
    2.2500   -3.8971    0.0000 C   0  0  0  0  0  0  0  0  0  0  0  0
    3.0000   -2.5981    0.0000 O   0  0  0  0  0  0  0  0  0  0  0  0
    3.0000   -5.1962    0.0000 N   0  0  0  0  0  0  0  0  0  0  0  0
    4.5000   -5.1962    0.0000 C   0  0  0  0  0  0  0  0  0  0  0  0
    5.2500   -6.4952    0.0000 C   0  0  0  0  0  0  0  0  0  0  0  0
    6.7500   -6.4952    0.0000 C   0  0  0  0  0  0  0  0  0  0  0  0
    7.5000   -7.7942    0.0000 C   0  0  0  0  0  0  0  0  0  0  0  0
    9.0000   -7.7942    0.0000 C   0  0  0  0  0  0  0  0  0  0  0  0
    9.7500   -6.4952    0.0000 C   0  0  0  0  0  0  0  0  0  0  0  0
    9.0000   -5.1962    0.0000 C   0  0  0  0  0  0  0  0  0  0  0  0
    7.5000   -5.1962    0.0000 C   0  0  0  0  0  0  0  0  0  0  0  0
    5.2500   -3.8971    0.0000 C   0  0  0  0  0  0  0  0  0  0  0  0
    4.5000   -2.5981    0.0000 O   0  0  0  0  0  0  0  0  0  0  0  0
    6.7500   -3.8971    0.0000 O   0  0  0  0  0  0  0  0  0  0  0  0
  1  2  2  0
  2  3  1  0
  3  4  1  0
  4  5  1  0
  5  6  1  0
  6  7  2  0
  7  8  1  0
  8  9  2  0
  9 10  1  0
 10 11  2  0
  5 12  1  0
 12 13  1  0
  2 14  1  0
 14 15  1  0
 15 16  1  0
 16 17  1  0
 17 18  1  0
 18 19  1  0
 19 20  1  0
 19 21  1  0
 21 22  1  0
 22 23  2  0
 22 24  1  0
 24 25  1  0
 25 26  1  0
 26 27  1  0
 27 28  2  0
 28 29  1  0
 29 30  2  0
 30 31  1  0
 31 32  2  0
 25 33  1  0
 33 34  2  0
 33 35  1  0
 35 36  1  0
 36 37  1  0
 37 38  1  0
 38 39  2  0
 39 40  1  0
 40 41  2  0
 41 42  1  0
 42 43  2  0
 36 44  1  0
 44 45  2  0
 44 46  1  0
 13  5  1  0
 20 15  1  0
 32 27  1  0
 43 38  1  0
 11  6  1  0
 21 17  1  0
M  END
>  <Title>  (34) 
idAABHgen7

$$$$

     RDKit          2D

 46 53  0  0  0  0  0  0  0  0999 V2000
   -1.8760    4.4687    0.0000 O   0  0  0  0  0  0  0  0  0  0  0  0
   -3.2463    3.8586    0.0000 C   0  0  0  0  0  0  0  0  0  0  0  0
   -3.4031    2.3668    0.0000 N   0  0  0  0  0  0  0  0  0  0  0  0
   -2.1895    1.4851    0.0000 C   0  0  0  0  0  0  0  0  0  0  0  0
   -0.8192    2.0952    0.0000 C   0  0  0  0  0  0  0  0  0  0  0  0
    0.3943    1.2135    0.0000 C   0  0  0  0  0  0  0  0  0  0  0  0
    1.2760    0.0000    0.0000 C   0  0  0  0  0  0  0  0  0  0  0  0
    0.3943   -1.2135    0.0000 C   0  0  0  0  0  0  0  0  0  0  0  0
   -1.0323   -0.7500    0.0000 C   0  0  0  0  0  0  0  0  0  0  0  0
   -2.3463   -0.0067    0.0000 C   0  0  0  0  0  0  0  0  0  0  0  0
   -1.0323    0.7500    0.0000 N   0  0  0  0  0  0  0  0  0  0  0  0
   -2.2458    1.6317    0.0000 C   0  0  0  0  0  0  0  0  0  0  0  0
   -2.0890    3.1235    0.0000 C   0  0  0  0  0  0  0  0  0  0  0  0
   -3.3025    4.0051    0.0000 C   0  0  0  0  0  0  0  0  0  0  0  0
   -3.1458    5.4969    0.0000 C   0  0  0  0  0  0  0  0  0  0  0  0
   -4.3593    6.3786    0.0000 C   0  0  0  0  0  0  0  0  0  0  0  0
   -5.7296    5.7685    0.0000 C   0  0  0  0  0  0  0  0  0  0  0  0
   -6.9431    6.6502    0.0000 C   0  0  0  0  0  0  0  0  0  0  0  0
   -6.7863    8.1420    0.0000 C   0  0  0  0  0  0  0  0  0  0  0  0
   -7.9999    9.0236    0.0000 C   0  0  0  0  0  0  0  0  0  0  0  0
   -9.3702    8.4135    0.0000 C   0  0  0  0  0  0  0  0  0  0  0  0
   -9.5270    6.9217    0.0000 C   0  0  0  0  0  0  0  0  0  0  0  0
   -8.3134    6.0401    0.0000 N   0  0  0  0  0  0  0  0  0  0  0  0
   -5.8864    4.2767    0.0000 C   0  0  0  0  0  0  0  0  0  0  0  0
   -4.6729    3.3950    0.0000 C   0  0  0  0  0  0  0  0  0  0  0  0
   -4.4598    4.7402    0.0000 C   0  0  0  0  0  0  0  0  0  0  0  0
   -4.3030    6.2320    0.0000 C   0  0  0  0  0  0  0  0  0  0  0  0
   -5.5165    7.1137    0.0000 C   0  0  0  0  0  0  0  0  0  0  0  0
   -6.8869    6.5036    0.0000 C   0  0  0  0  0  0  0  0  0  0  0  0
   -7.0436    5.0118    0.0000 C   0  0  0  0  0  0  0  0  0  0  0  0
   -5.8301    4.1301    0.0000 C   0  0  0  0  0  0  0  0  0  0  0  0
   -5.6733    5.6219    0.0000 C   0  0  0  0  0  0  0  0  0  0  0  0
   -4.4598    4.7402    0.0000 C   0  0  0  0  0  0  0  0  0  0  0  0
   -3.2778    5.6638    0.0000 O   0  0  0  0  0  0  0  0  0  0  0  0
   -4.6166    3.2485    0.0000 C   0  0  0  0  0  0  0  0  0  0  0  0
   -5.9869    2.6383    0.0000 C   0  0  0  0  0  0  0  0  0  0  0  0
   -6.1437    1.1466    0.0000 C   0  0  0  0  0  0  0  0  0  0  0  0
   -4.9302    0.2649    0.0000 C   0  0  0  0  0  0  0  0  0  0  0  0
   -5.0870   -1.2269    0.0000 C   0  0  0  0  0  0  0  0  0  0  0  0
   -6.4573   -1.8370    0.0000 C   0  0  0  0  0  0  0  0  0  0  0  0
   -6.6141   -3.3288    0.0000 C   0  0  0  0  0  0  0  0  0  0  0  0
   -5.4006   -4.2105    0.0000 C   0  0  0  0  0  0  0  0  0  0  0  0
   -4.0302   -3.6004    0.0000 C   0  0  0  0  0  0  0  0  0  0  0  0
   -3.8734   -2.1086    0.0000 N   0  0  0  0  0  0  0  0  0  0  0  0
   -3.5599    0.8750    0.0000 C   0  0  0  0  0  0  0  0  0  0  0  0
   -3.4031    2.3668    0.0000 C   0  0  0  0  0  0  0  0  0  0  0  0
  1  2  2  0
  2  3  1  0
  3  4  1  0
  4  5  1  0
  5  6  1  0
  6  7  1  0
  7  8  1  0
  8  9  1  0
  9 10  1  0
  9 11  1  0
 11 12  1  0
 12 13  1  0
 13 14  1  0
 14 15  2  0
 15 16  1  0
 16 17  2  0
 17 18  1  0
 18 19  2  0
 19 20  1  0
 20 21  2  0
 21 22  1  0
 22 23  2  0
 17 24  1  0
 24 25  2  0
  2 26  1  0
 26 27  1  0
 27 28  1  0
 28 29  1  0
 29 30  1  0
 30 31  1  0
 30 32  1  0
 32 33  1  0
 33 34  2  0
 33 35  1  0
 35 36  2  0
 36 37  1  0
 37 38  2  0
 38 39  1  0
 39 40  2  0
 40 41  1  0
 41 42  2  0
 42 43  1  0
 43 44  2  0
 38 45  1  0
 45 46  2  0
 10  4  1  0
 25 14  1  0
 31 26  1  0
 46 35  1  0
 11  6  1  0
 23 18  1  0
 32 28  1  0
 44 39  1  0
M  END
>  <Title>  (35) 
idAABIgen7

$$$$

     RDKit          2D

 42 46  0  0  0  0  0  0  0  0999 V2000
    6.9714   -2.6159    0.0000 C   0  0  0  0  0  0  0  0  0  0  0  0
    5.5751   -2.0679    0.0000 C   0  0  0  0  0  0  0  0  0  0  0  0
    4.1788   -1.5199    0.0000 C   0  0  0  0  0  0  0  0  0  0  0  0
    6.1231   -0.6716    0.0000 C   0  0  0  0  0  0  0  0  0  0  0  0
    5.0271   -3.4642    0.0000 C   0  0  0  0  0  0  0  0  0  0  0  0
    3.5438   -3.6877    0.0000 C   0  0  0  0  0  0  0  0  0  0  0  0
    2.6086   -2.5150    0.0000 O   0  0  0  0  0  0  0  0  0  0  0  0
    2.9958   -5.0841    0.0000 N   0  0  0  0  0  0  0  0  0  0  0  0
    4.0161   -6.1836    0.0000 C   0  0  0  0  0  0  0  0  0  0  0  0
    3.7925   -7.6669    0.0000 C   0  0  0  0  0  0  0  0  0  0  0  0
    2.4935   -8.4169    0.0000 O   0  0  0  0  0  0  0  0  0  0  0  0
    1.0972   -7.8689    0.0000 C   0  0  0  0  0  0  0  0  0  0  0  0
    1.0411   -9.3678    0.0000 C   0  0  0  0  0  0  0  0  0  0  0  0
   -0.2851  -10.0687    0.0000 C   0  0  0  0  0  0  0  0  0  0  0  0
   -0.3412  -11.5677    0.0000 C   0  0  0  0  0  0  0  0  0  0  0  0
    0.9289  -12.3657    0.0000 C   0  0  0  0  0  0  0  0  0  0  0  0
    0.8728  -13.8647    0.0000 N   0  0  0  0  0  0  0  0  0  0  0  0
    2.2551  -11.6648    0.0000 O   0  0  0  0  0  0  0  0  0  0  0  0
   -1.5552   -9.2707    0.0000 C   0  0  0  0  0  0  0  0  0  0  0  0
   -1.4991   -7.7717    0.0000 C   0  0  0  0  0  0  0  0  0  0  0  0
   -2.7692   -6.9737    0.0000 O   0  0  0  0  0  0  0  0  0  0  0  0
   -2.8814   -9.9716    0.0000 C   0  0  0  0  0  0  0  0  0  0  0  0
   -3.5823   -8.6454    0.0000 C   0  0  0  0  0  0  0  0  0  0  0  0
   -2.1805  -11.2978    0.0000 C   0  0  0  0  0  0  0  0  0  0  0  0
   -4.2075  -10.6725    0.0000 C   0  0  0  0  0  0  0  0  0  0  0  0
   -0.3362   -8.3110    0.0000 C   0  0  0  0  0  0  0  0  0  0  0  0
   -0.7783   -6.8776    0.0000 C   0  0  0  0  0  0  0  0  0  0  0  0
    0.6550   -6.4355    0.0000 C   0  0  0  0  0  0  0  0  0  0  0  0
   -0.2357   -5.2286    0.0000 C   0  0  0  0  0  0  0  0  0  0  0  0
    1.5000   -5.1962    0.0000 C   0  0  0  0  0  0  0  0  0  0  0  0
    0.7500   -3.8971    0.0000 C   0  0  0  0  0  0  0  0  0  0  0  0
    1.5000   -2.5981    0.0000 C   0  0  0  0  0  0  0  0  0  0  0  0
    0.7500   -1.2990    0.0000 C   0  0  0  0  0  0  0  0  0  0  0  0
    1.5000    0.0000    0.0000 C   0  0  0  0  0  0  0  0  0  0  0  0
    0.7500    1.2990    0.0000 C   0  0  0  0  0  0  0  0  0  0  0  0
   -0.7500    1.2990    0.0000 C   0  0  0  0  0  0  0  0  0  0  0  0
   -1.5000    0.0000    0.0000 C   0  0  0  0  0  0  0  0  0  0  0  0
    1.7010   -0.7500    0.0000 C   0  0  0  0  0  0  0  0  0  0  0  0
    3.0000   -0.0000    0.0000 C   0  0  0  0  0  0  0  0  0  0  0  0
    2.2500    1.2990    0.0000 C   0  0  0  0  0  0  0  0  0  0  0  0
    2.2500   -1.2990    0.0000 C   0  0  0  0  0  0  0  0  0  0  0  0
   -0.7500   -1.2990    0.0000 C   0  0  0  0  0  0  0  0  0  0  0  0
  1  2  1  0
  2  3  1  0
  2  4  1  0
  2  5  1  0
  5  6  1  0
  6  7  2  0
  6  8  1  0
  8  9  1  0
  9 10  1  0
 10 11  1  0
 11 12  1  0
 12 13  1  0
 13 14  1  0
 14 15  1  0
 15 16  1  0
 16 17  1  0
 16 18  2  0
 14 19  1  0
 19 20  1  0
 20 21  1  0
 19 22  1  0
 22 23  1  0
 22 24  1  0
 22 25  1  0
 12 26  1  0
 26 27  1  0
 27 28  1  0
 28 29  1  0
 28 30  1  0
 30 31  1  0
 31 32  1  0
 32 33  1  0
 33 34  1  0
 34 35  1  0
 35 36  1  0
 36 37  1  0
 37 38  1  0
 38 39  1  0
 39 40  1  0
 39 41  1  0
 37 42  1  0
 30  8  1  0
 41 33  1  0
 28 12  1  0
 42 33  1  0
 40 35  1  0
M  END
>  <Title>  (36) 
idAABJgen7

$$$$

     RDKit          2D

 29 31  0  0  0  0  0  0  0  0999 V2000
    6.0000   -2.5981    0.0000 C   0  0  0  0  0  0  0  0  0  0  0  0
    5.2500   -1.2990    0.0000 C   0  0  0  0  0  0  0  0  0  0  0  0
    3.7500   -1.2990    0.0000 C   0  0  0  0  0  0  0  0  0  0  0  0
    3.0000    0.0000    0.0000 O   0  0  0  0  0  0  0  0  0  0  0  0
    1.5000    0.0000    0.0000 C   0  0  0  0  0  0  0  0  0  0  0  0
    0.7500   -1.2990    0.0000 C   0  0  0  0  0  0  0  0  0  0  0  0
   -0.7500   -1.2990    0.0000 C   0  0  0  0  0  0  0  0  0  0  0  0
   -1.5000    0.0000    0.0000 C   0  0  0  0  0  0  0  0  0  0  0  0
   -3.0000    0.0000    0.0000 N   0  0  0  0  0  0  0  0  0  0  0  0
   -3.7500    1.2990    0.0000 C   0  0  0  0  0  0  0  0  0  0  0  0
   -3.0000    2.5981    0.0000 O   0  0  0  0  0  0  0  0  0  0  0  0
   -5.2500    1.2990    0.0000 C   0  0  0  0  0  0  0  0  0  0  0  0
   -6.0000    2.5981    0.0000 C   0  0  0  0  0  0  0  0  0  0  0  0
   -5.2500    3.8971    0.0000 C   0  0  0  0  0  0  0  0  0  0  0  0
   -6.0000    5.1962    0.0000 C   0  0  0  0  0  0  0  0  0  0  0  0
   -7.5000    5.1962    0.0000 N   0  0  0  0  0  0  0  0  0  0  0  0
   -8.2500    6.4952    0.0000 C   0  0  0  0  0  0  0  0  0  0  0  0
   -9.7500    6.4952    0.0000 O   0  0  0  0  0  0  0  0  0  0  0  0
   -7.5000    7.7942    0.0000 C   0  0  0  0  0  0  0  0  0  0  0  0
   -8.1101    9.1645    0.0000 C   0  0  0  0  0  0  0  0  0  0  0  0
   -6.9954   10.1682    0.0000 C   0  0  0  0  0  0  0  0  0  0  0  0
   -5.6963    9.4182    0.0000 C   0  0  0  0  0  0  0  0  0  0  0  0
   -6.0082    7.9510    0.0000 O   0  0  0  0  0  0  0  0  0  0  0  0
   -8.2500    3.8971    0.0000 C   0  0  0  0  0  0  0  0  0  0  0  0
   -7.5000    2.5981    0.0000 C   0  0  0  0  0  0  0  0  0  0  0  0
   -0.7500    1.2990    0.0000 C   0  0  0  0  0  0  0  0  0  0  0  0
    0.7500    1.2990    0.0000 C   0  0  0  0  0  0  0  0  0  0  0  0
    1.5000    2.5981    0.0000 O   0  0  0  0  0  0  0  0  0  0  0  0
    3.0000    2.5981    0.0000 C   0  0  0  0  0  0  0  0  0  0  0  0
  1  2  2  0
  2  3  1  0
  3  4  1  0
  4  5  1  0
  5  6  2  0
  6  7  1  0
  7  8  2  0
  8  9  1  0
  9 10  1  0
 10 11  2  0
 10 12  1  0
 12 13  1  0
 13 14  1  0
 14 15  1  0
 15 16  1  0
 16 17  1  0
 17 18  2  0
 17 19  1  0
 19 20  2  0
 20 21  1  0
 21 22  2  0
 22 23  1  0
 16 24  1  0
 24 25  1  0
  8 26  1  0
 26 27  2  0
 27 28  1  0
 28 29  1  0
 27  5  1  0
 25 13  1  0
 23 19  1  0
M  END
>  <Title>  (37) 
idAABKgen7

$$$$

     RDKit          2D

 46 52  0  0  0  0  0  0  0  0999 V2000
    2.9013    0.9352    0.0000 C   0  0  0  0  0  0  0  0  0  0  0  0
    1.7286    0.0000    0.0000 C   0  0  0  0  0  0  0  0  0  0  0  0
    2.9013   -0.9352    0.0000 C   0  0  0  0  0  0  0  0  0  0  0  0
    1.0777    1.3515    0.0000 C   0  0  0  0  0  0  0  0  0  0  0  0
   -0.3846    1.6852    0.0000 C   0  0  0  0  0  0  0  0  0  0  0  0
   -1.5574    0.7500    0.0000 C   0  0  0  0  0  0  0  0  0  0  0  0
   -1.5574   -0.7500    0.0000 C   0  0  0  0  0  0  0  0  0  0  0  0
   -2.5626    0.3634    0.0000 C   0  0  0  0  0  0  0  0  0  0  0  0
   -3.0496   -0.5973    0.0000 C   0  0  0  0  0  0  0  0  0  0  0  0
   -3.3234    0.8775    0.0000 C   0  0  0  0  0  0  0  0  0  0  0  0
   -4.7376    1.3778    0.0000 C   0  0  0  0  0  0  0  0  0  0  0  0
   -5.0114    2.8525    0.0000 C   0  0  0  0  0  0  0  0  0  0  0  0
   -6.3655    3.4978    0.0000 C   0  0  0  0  0  0  0  0  0  0  0  0
   -6.1703    4.9851    0.0000 C   0  0  0  0  0  0  0  0  0  0  0  0
   -4.6955    5.2589    0.0000 C   0  0  0  0  0  0  0  0  0  0  0  0
   -3.9793    3.9410    0.0000 C   0  0  0  0  0  0  0  0  0  0  0  0
   -4.3875   -1.2755    0.0000 C   0  0  0  0  0  0  0  0  0  0  0  0
   -5.1463   -2.5694    0.0000 C   0  0  0  0  0  0  0  0  0  0  0  0
   -5.0851   -4.0682    0.0000 C   0  0  0  0  0  0  0  0  0  0  0  0
   -4.2234   -5.2959    0.0000 C   0  0  0  0  0  0  0  0  0  0  0  0
   -5.7066   -5.0724    0.0000 C   0  0  0  0  0  0  0  0  0  0  0  0
   -5.4087   -6.2151    0.0000 C   0  0  0  0  0  0  0  0  0  0  0  0
   -5.2054   -7.7013    0.0000 C   0  0  0  0  0  0  0  0  0  0  0  0
   -6.3907   -8.6205    0.0000 O   0  0  0  0  0  0  0  0  0  0  0  0
   -3.8166   -8.2682    0.0000 C   0  0  0  0  0  0  0  0  0  0  0  0
   -3.6133   -9.7544    0.0000 O   0  0  0  0  0  0  0  0  0  0  0  0
   -2.6313   -7.3490    0.0000 C   0  0  0  0  0  0  0  0  0  0  0  0
   -2.8346   -5.8629    0.0000 C   0  0  0  0  0  0  0  0  0  0  0  0
   -1.3598   -5.5890    0.0000 C   0  0  0  0  0  0  0  0  0  0  0  0
   -0.2672   -4.5613    0.0000 C   0  0  0  0  0  0  0  0  0  0  0  0
    0.0963   -3.1060    0.0000 C   0  0  0  0  0  0  0  0  0  0  0  0
   -0.3846   -1.6852    0.0000 C   0  0  0  0  0  0  0  0  0  0  0  0
    0.9245   -2.4175    0.0000 C   0  0  0  0  0  0  0  0  0  0  0  0
    1.0777   -1.3515    0.0000 C   0  0  0  0  0  0  0  0  0  0  0  0
    2.0130   -2.5242    0.0000 C   0  0  0  0  0  0  0  0  0  0  0  0
    3.4962   -2.3006    0.0000 C   0  0  0  0  0  0  0  0  0  0  0  0
    4.4315   -3.4734    0.0000 C   0  0  0  0  0  0  0  0  0  0  0  0
    5.9147   -3.2498    0.0000 C   0  0  0  0  0  0  0  0  0  0  0  0
    6.8499   -4.4226    0.0000 C   0  0  0  0  0  0  0  0  0  0  0  0
    6.3019   -5.8189    0.0000 C   0  0  0  0  0  0  0  0  0  0  0  0
    4.8187   -6.0424    0.0000 C   0  0  0  0  0  0  0  0  0  0  0  0
    5.2900   -2.7887    0.0000 C   0  0  0  0  0  0  0  0  0  0  0  0
    6.4627   -1.8535    0.0000 C   0  0  0  0  0  0  0  0  0  0  0  0
    7.3980   -3.0263    0.0000 C   0  0  0  0  0  0  0  0  0  0  0  0
    4.9795   -2.0771    0.0000 C   0  0  0  0  0  0  0  0  0  0  0  0
    3.8835   -4.8697    0.0000 C   0  0  0  0  0  0  0  0  0  0  0  0
  1  2  1  0
  2  3  1  0
  2  4  1  0
  4  5  1  0
  5  6  1  0
  6  7  1  0
  7  8  1  0
  7  9  1  0
  9 10  1  0
 10 11  1  0
 11 12  1  0
 12 13  1  0
 13 14  1  0
 14 15  1  0
 15 16  1  0
  9 17  1  0
 17 18  1  0
 18 19  1  0
 19 20  1  0
 20 21  1  0
 20 22  1  0
 22 23  1  0
 23 24  1  0
 23 25  1  0
 25 26  1  0
 25 27  1  0
 27 28  1  0
 28 29  1  0
 29 30  1  0
 30 31  1  0
 31 32  1  0
 32 33  1  0
 32 34  1  0
 34 35  1  0
 35 36  1  0
 36 37  1  0
 37 38  1  0
 38 39  1  0
 39 40  1  0
 40 41  1  0
 41 42  1  0
 42 43  1  0
 43 44  1  0
 43 45  1  0
 41 46  1  0
 34  2  1  0
 45 37  1  0
 32  7  1  0
 46 37  1  0
 16 12  1  0
 28 20  1  0
 44 39  1  0
M  END
>  <Title>  (38) 
idAABLgen7

$$$$

     RDKit          2D

 26 28  0  0  0  0  0  0  0  0999 V2000
   -4.6740   -7.4303    0.0000 C   0  0  0  0  0  0  0  0  0  0  0  0
   -3.3037   -6.8202    0.0000 C   0  0  0  0  0  0  0  0  0  0  0  0
   -2.0046   -7.5702    0.0000 C   0  0  0  0  0  0  0  0  0  0  0  0
   -0.8899   -6.5665    0.0000 C   0  0  0  0  0  0  0  0  0  0  0  0
   -1.5000   -5.1962    0.0000 C   0  0  0  0  0  0  0  0  0  0  0  0
   -0.7500   -3.8971    0.0000 C   0  0  0  0  0  0  0  0  0  0  0  0
    0.7500   -3.8971    0.0000 N   0  0  0  0  0  0  0  0  0  0  0  0
    1.5000   -5.1962    0.0000 C   0  0  0  0  0  0  0  0  0  0  0  0
    1.5000   -2.5981    0.0000 C   0  0  0  0  0  0  0  0  0  0  0  0
    3.0000   -2.5981    0.0000 O   0  0  0  0  0  0  0  0  0  0  0  0
    0.7500   -1.2990    0.0000 C   0  0  0  0  0  0  0  0  0  0  0  0
    1.5000    0.0000    0.0000 C   0  0  0  0  0  0  0  0  0  0  0  0
    0.7500    1.2990    0.0000 C   0  0  0  0  0  0  0  0  0  0  0  0
   -0.7500    1.2990    0.0000 C   0  0  0  0  0  0  0  0  0  0  0  0
   -1.5000    2.5981    0.0000 S   0  0  0  0  0  0  0  0  0  0  0  0
   -0.2010    3.3481    0.0000 O   0  0  0  0  0  0  0  0  0  0  0  0
   -2.7990    1.8481    0.0000 O   0  0  0  0  0  0  0  0  0  0  0  0
   -2.2500    3.8971    0.0000 N   0  0  0  0  0  0  0  0  0  0  0  0
   -1.5000    5.1962    0.0000 C   0  0  0  0  0  0  0  0  0  0  0  0
   -2.2500    6.4952    0.0000 C   0  0  0  0  0  0  0  0  0  0  0  0
   -3.7500    6.4952    0.0000 O   0  0  0  0  0  0  0  0  0  0  0  0
   -4.5000    5.1962    0.0000 C   0  0  0  0  0  0  0  0  0  0  0  0
   -3.7500    3.8971    0.0000 C   0  0  0  0  0  0  0  0  0  0  0  0
   -1.5000    0.0000    0.0000 C   0  0  0  0  0  0  0  0  0  0  0  0
   -0.7500   -1.2990    0.0000 C   0  0  0  0  0  0  0  0  0  0  0  0
   -2.9918   -5.3529    0.0000 O   0  0  0  0  0  0  0  0  0  0  0  0
  1  2  1  0
  2  3  2  0
  3  4  1  0
  4  5  2  0
  5  6  1  0
  6  7  1  0
  7  8  1  0
  7  9  1  0
  9 10  2  0
  9 11  1  0
 11 12  2  0
 12 13  1  0
 13 14  2  0
 14 15  1  0
 15 16  2  0
 15 17  2  0
 15 18  1  0
 18 19  1  0
 19 20  1  0
 20 21  1  0
 21 22  1  0
 22 23  1  0
 14 24  1  0
 24 25  2  0
  5 26  1  0
 26  2  1  0
 25 11  1  0
 23 18  1  0
M  END
>  <Title>  (39) 
idAABMgen7

$$$$

     RDKit          2D

 36 41  0  0  0  0  0  0  0  0999 V2000
   -1.8760    4.4687    0.0000 O   0  0  0  0  0  0  0  0  0  0  0  0
   -3.2463    3.8586    0.0000 C   0  0  0  0  0  0  0  0  0  0  0  0
   -4.4598    4.7402    0.0000 N   0  0  0  0  0  0  0  0  0  0  0  0
   -4.3030    6.2320    0.0000 C   0  0  0  0  0  0  0  0  0  0  0  0
   -5.5165    7.1137    0.0000 C   0  0  0  0  0  0  0  0  0  0  0  0
   -6.5955    6.0717    0.0000 C   0  0  0  0  0  0  0  0  0  0  0  0
   -8.0374    6.4852    0.0000 C   0  0  0  0  0  0  0  0  0  0  0  0
   -9.1164    5.4432    0.0000 C   0  0  0  0  0  0  0  0  0  0  0  0
   -8.7536    3.9877    0.0000 C   0  0  0  0  0  0  0  0  0  0  0  0
   -7.3117    3.5743    0.0000 C   0  0  0  0  0  0  0  0  0  0  0  0
   -6.2327    4.6163    0.0000 C   0  0  0  0  0  0  0  0  0  0  0  0
   -6.3553    8.3573    0.0000 C   0  0  0  0  0  0  0  0  0  0  0  0
   -4.8590    8.4619    0.0000 C   0  0  0  0  0  0  0  0  0  0  0  0
   -3.4031    2.3668    0.0000 N   0  0  0  0  0  0  0  0  0  0  0  0
   -2.1895    1.4851    0.0000 C   0  0  0  0  0  0  0  0  0  0  0  0
   -0.8192    2.0952    0.0000 C   0  0  0  0  0  0  0  0  0  0  0  0
    0.3943    1.2135    0.0000 C   0  0  0  0  0  0  0  0  0  0  0  0
    1.2760    0.0000    0.0000 C   0  0  0  0  0  0  0  0  0  0  0  0
    0.3943   -1.2135    0.0000 C   0  0  0  0  0  0  0  0  0  0  0  0
   -1.0323   -0.7500    0.0000 C   0  0  0  0  0  0  0  0  0  0  0  0
   -2.3463   -0.0067    0.0000 C   0  0  0  0  0  0  0  0  0  0  0  0
   -1.0323    0.7500    0.0000 N   0  0  0  0  0  0  0  0  0  0  0  0
   -2.2458    1.6317    0.0000 C   0  0  0  0  0  0  0  0  0  0  0  0
   -2.0890    3.1235    0.0000 C   0  0  0  0  0  0  0  0  0  0  0  0
   -3.3025    4.0051    0.0000 C   0  0  0  0  0  0  0  0  0  0  0  0
   -3.1458    5.4969    0.0000 C   0  0  0  0  0  0  0  0  0  0  0  0
   -4.3593    6.3786    0.0000 C   0  0  0  0  0  0  0  0  0  0  0  0
   -5.7296    5.7685    0.0000 C   0  0  0  0  0  0  0  0  0  0  0  0
   -6.9431    6.6502    0.0000 C   0  0  0  0  0  0  0  0  0  0  0  0
   -6.7863    8.1420    0.0000 C   0  0  0  0  0  0  0  0  0  0  0  0
   -7.9999    9.0236    0.0000 C   0  0  0  0  0  0  0  0  0  0  0  0
   -9.3702    8.4135    0.0000 C   0  0  0  0  0  0  0  0  0  0  0  0
   -9.5270    6.9217    0.0000 C   0  0  0  0  0  0  0  0  0  0  0  0
   -8.3134    6.0401    0.0000 N   0  0  0  0  0  0  0  0  0  0  0  0
   -5.8864    4.2767    0.0000 C   0  0  0  0  0  0  0  0  0  0  0  0
   -4.6729    3.3950    0.0000 C   0  0  0  0  0  0  0  0  0  0  0  0
  1  2  2  0
  2  3  1  0
  3  4  1  0
  4  5  1  0
  5  6  1  0
  6  7  2  0
  7  8  1  0
  8  9  2  0
  9 10  1  0
 10 11  2  0
  5 12  1  0
 12 13  1  0
  2 14  1  0
 14 15  1  0
 15 16  1  0
 16 17  1  0
 17 18  1  0
 18 19  1  0
 19 20  1  0
 20 21  1  0
 20 22  1  0
 22 23  1  0
 23 24  1  0
 24 25  1  0
 25 26  2  0
 26 27  1  0
 27 28  2  0
 28 29  1  0
 29 30  2  0
 30 31  1  0
 31 32  2  0
 32 33  1  0
 33 34  2  0
 28 35  1  0
 35 36  2  0
 13  5  1  0
 21 15  1  0
 36 25  1  0
 11  6  1  0
 22 17  1  0
 34 29  1  0
M  END
>  <Title>  (40) 
idAABNgen7

$$$$

     RDKit          2D

 49 53  0  0  0  0  0  0  0  0999 V2000
   -0.6149   13.1058    0.0000 C   0  0  0  0  0  0  0  0  0  0  0  0
   -1.9140   12.3558    0.0000 C   0  0  0  0  0  0  0  0  0  0  0  0
   -3.2130   11.6058    0.0000 C   0  0  0  0  0  0  0  0  0  0  0  0
   -2.6640   13.6549    0.0000 C   0  0  0  0  0  0  0  0  0  0  0  0
   -1.1640   11.0568    0.0000 C   0  0  0  0  0  0  0  0  0  0  0  0
   -1.9140    9.7578    0.0000 N   0  0  0  0  0  0  0  0  0  0  0  0
   -3.4140    9.7578    0.0000 C   0  0  0  0  0  0  0  0  0  0  0  0
   -4.1640    8.4587    0.0000 C   0  0  0  0  0  0  0  0  0  0  0  0
   -3.4140    7.1597    0.0000 O   0  0  0  0  0  0  0  0  0  0  0  0
   -5.6640    8.4587    0.0000 C   0  0  0  0  0  0  0  0  0  0  0  0
   -6.4140    9.7578    0.0000 C   0  0  0  0  0  0  0  0  0  0  0  0
   -5.6640   11.0568    0.0000 C   0  0  0  0  0  0  0  0  0  0  0  0
   -4.1640   11.0568    0.0000 C   0  0  0  0  0  0  0  0  0  0  0  0
   -3.4140   12.3558    0.0000 C   0  0  0  0  0  0  0  0  0  0  0  0
   -4.1640   13.6549    0.0000 C   0  0  0  0  0  0  0  0  0  0  0  0
   -5.6640   13.6549    0.0000 C   0  0  0  0  0  0  0  0  0  0  0  0
   -6.4140   12.3558    0.0000 C   0  0  0  0  0  0  0  0  0  0  0  0
   -6.4140    7.1597    0.0000 N   0  0  0  0  0  0  0  0  0  0  0  0
   -5.6640    5.8606    0.0000 C   0  0  0  0  0  0  0  0  0  0  0  0
   -4.1640    5.8606    0.0000 O   0  0  0  0  0  0  0  0  0  0  0  0
   -6.4140    4.5616    0.0000 C   0  0  0  0  0  0  0  0  0  0  0  0
   -7.9140    4.5616    0.0000 C   0  0  0  0  0  0  0  0  0  0  0  0
   -8.6640    5.8606    0.0000 C   0  0  0  0  0  0  0  0  0  0  0  0
   -7.9140    7.1597    0.0000 C   0  0  0  0  0  0  0  0  0  0  0  0
   -8.6640    8.4587    0.0000 C   0  0  0  0  0  0  0  0  0  0  0  0
  -10.1640    8.4587    0.0000 C   0  0  0  0  0  0  0  0  0  0  0  0
  -10.9140    7.1597    0.0000 C   0  0  0  0  0  0  0  0  0  0  0  0
  -10.1640    5.8606    0.0000 C   0  0  0  0  0  0  0  0  0  0  0  0
   -5.6640    3.2626    0.0000 N   0  0  0  0  0  0  0  0  0  0  0  0
   -4.1640    3.2626    0.0000 C   0  0  0  0  0  0  0  0  0  0  0  0
   -3.4140    4.5616    0.0000 O   0  0  0  0  0  0  0  0  0  0  0  0
   -3.4140    1.9635    0.0000 O   0  0  0  0  0  0  0  0  0  0  0  0
   -1.9140    1.9635    0.0000 C   0  0  0  0  0  0  0  0  0  0  0  0
   -1.0323    3.1771    0.0000 C   0  0  0  0  0  0  0  0  0  0  0  0
    0.3943    2.7135    0.0000 O   0  0  0  0  0  0  0  0  0  0  0  0
    0.3943    1.2135    0.0000 C   0  0  0  0  0  0  0  0  0  0  0  0
    1.2760    0.0000    0.0000 O   0  0  0  0  0  0  0  0  0  0  0  0
    0.3943   -1.2135    0.0000 C   0  0  0  0  0  0  0  0  0  0  0  0
   -1.0323   -0.7500    0.0000 C   0  0  0  0  0  0  0  0  0  0  0  0
   -1.0323    0.7500    0.0000 C   0  0  0  0  0  0  0  0  0  0  0  0
   -1.1640    8.4587    0.0000 S   0  0  0  0  0  0  0  0  0  0  0  0
   -2.4630    7.7087    0.0000 O   0  0  0  0  0  0  0  0  0  0  0  0
    0.1351    9.2087    0.0000 O   0  0  0  0  0  0  0  0  0  0  0  0
   -0.4140    7.1597    0.0000 C   0  0  0  0  0  0  0  0  0  0  0  0
   -1.1640    5.8606    0.0000 C   0  0  0  0  0  0  0  0  0  0  0  0
   -0.4140    4.5616    0.0000 C   0  0  0  0  0  0  0  0  0  0  0  0
    1.0860    4.5616    0.0000 C   0  0  0  0  0  0  0  0  0  0  0  0
    1.8360    5.8606    0.0000 C   0  0  0  0  0  0  0  0  0  0  0  0
    1.0860    7.1597    0.0000 C   0  0  0  0  0  0  0  0  0  0  0  0
  1  2  1  0
  2  3  1  0
  2  4  1  0
  2  5  1  0
  5  6  1  0
  6  7  1  0
  7  8  1  0
  8  9  1  0
  8 10  1  0
 10 11  1  0
 11 12  1  0
 12 13  2  0
 13 14  1  0
 14 15  2  0
 15 16  1  0
 16 17  2  0
 10 18  1  0
 18 19  1  0
 19 20  2  0
 19 21  1  0
 21 22  1  0
 22 23  1  0
 23 24  2  0
 24 25  1  0
 25 26  2  0
 26 27  1  0
 27 28  2  0
 21 29  1  0
 29 30  1  0
 30 31  2  0
 30 32  1  0
 32 33  1  0
 33 34  1  0
 34 35  1  0
 35 36  1  0
 36 37  1  0
 37 38  1  0
 38 39  1  0
 39 40  1  0
  6 41  1  0
 41 42  2  0
 41 43  2  0
 41 44  1  0
 44 45  2  0
 45 46  1  0
 46 47  2  0
 47 48  1  0
 48 49  2  0
 17 12  1  0
 28 23  1  0
 40 33  1  0
 49 44  1  0
 40 36  1  0
M  END
>  <Title>  (41) 
idAABOgen7

$$$$

     RDKit          2D

 73 78  0  0  0  0  0  0  0  0999 V2000
   12.2010   -0.7500    0.0000 C   0  0  0  0  0  0  0  0  0  0  0  0
   13.5000   -0.0000    0.0000 C   0  0  0  0  0  0  0  0  0  0  0  0
   14.7990    0.7500    0.0000 C   0  0  0  0  0  0  0  0  0  0  0  0
   14.2500   -1.2990    0.0000 C   0  0  0  0  0  0  0  0  0  0  0  0
   12.7500    1.2990    0.0000 C   0  0  0  0  0  0  0  0  0  0  0  0
   13.5000    2.5981    0.0000 N   0  0  0  0  0  0  0  0  0  0  0  0
   12.7500    3.8971    0.0000 S   0  0  0  0  0  0  0  0  0  0  0  0
   14.0490    4.6471    0.0000 O   0  0  0  0  0  0  0  0  0  0  0  0
   11.4510    3.1471    0.0000 O   0  0  0  0  0  0  0  0  0  0  0  0
   12.0000    5.1962    0.0000 C   0  0  0  0  0  0  0  0  0  0  0  0
   10.5000    5.1962    0.0000 C   0  0  0  0  0  0  0  0  0  0  0  0
    9.7500    6.4952    0.0000 C   0  0  0  0  0  0  0  0  0  0  0  0
   10.5000    7.7942    0.0000 C   0  0  0  0  0  0  0  0  0  0  0  0
   12.0000    7.7942    0.0000 C   0  0  0  0  0  0  0  0  0  0  0  0
   12.7500    6.4952    0.0000 C   0  0  0  0  0  0  0  0  0  0  0  0
   11.2500    1.2990    0.0000 C   0  0  0  0  0  0  0  0  0  0  0  0
   10.5000    2.5981    0.0000 O   0  0  0  0  0  0  0  0  0  0  0  0
   10.5000   -0.0000    0.0000 N   0  0  0  0  0  0  0  0  0  0  0  0
    9.0000   -0.0000    0.0000 C   0  0  0  0  0  0  0  0  0  0  0  0
    8.2500   -1.2990    0.0000 C   0  0  0  0  0  0  0  0  0  0  0  0
    6.7500   -1.2990    0.0000 C   0  0  0  0  0  0  0  0  0  0  0  0
    6.0000   -2.5981    0.0000 C   0  0  0  0  0  0  0  0  0  0  0  0
    4.5000   -2.5981    0.0000 C   0  0  0  0  0  0  0  0  0  0  0  0
    3.7500   -1.2990    0.0000 C   0  0  0  0  0  0  0  0  0  0  0  0
    4.5000    0.0000    0.0000 C   0  0  0  0  0  0  0  0  0  0  0  0
    6.0000   -0.0000    0.0000 C   0  0  0  0  0  0  0  0  0  0  0  0
    8.2500    1.2990    0.0000 C   0  0  0  0  0  0  0  0  0  0  0  0
    9.0000    2.5981    0.0000 O   0  0  0  0  0  0  0  0  0  0  0  0
    6.7500    1.2990    0.0000 N   0  0  0  0  0  0  0  0  0  0  0  0
    6.0000    2.5981    0.0000 C   0  0  0  0  0  0  0  0  0  0  0  0
    6.7500    3.8971    0.0000 C   0  0  0  0  0  0  0  0  0  0  0  0
    6.0000    5.1962    0.0000 C   0  0  0  0  0  0  0  0  0  0  0  0
    6.7500    6.4952    0.0000 C   0  0  0  0  0  0  0  0  0  0  0  0
    6.0000    7.7942    0.0000 C   0  0  0  0  0  0  0  0  0  0  0  0
    4.5000    7.7942    0.0000 C   0  0  0  0  0  0  0  0  0  0  0  0
    3.7500    6.4952    0.0000 C   0  0  0  0  0  0  0  0  0  0  0  0
    4.5000    5.1962    0.0000 C   0  0  0  0  0  0  0  0  0  0  0  0
    4.5000    2.5981    0.0000 C   0  0  0  0  0  0  0  0  0  0  0  0
    3.7500    1.2990    0.0000 O   0  0  0  0  0  0  0  0  0  0  0  0
    3.7500    3.8971    0.0000 N   0  0  0  0  0  0  0  0  0  0  0  0
    2.2500    3.8971    0.0000 C   0  0  0  0  0  0  0  0  0  0  0  0
    1.5000    2.5981    0.0000 C   0  0  0  0  0  0  0  0  0  0  0  0
    0.0000    2.5981    0.0000 C   0  0  0  0  0  0  0  0  0  0  0  0
   -0.7500    3.8971    0.0000 C   0  0  0  0  0  0  0  0  0  0  0  0
   -2.2500    3.8971    0.0000 C   0  0  0  0  0  0  0  0  0  0  0  0
   -3.0000    2.5981    0.0000 C   0  0  0  0  0  0  0  0  0  0  0  0
   -2.2500    1.2990    0.0000 C   0  0  0  0  0  0  0  0  0  0  0  0
   -0.7500    1.2990    0.0000 C   0  0  0  0  0  0  0  0  0  0  0  0
    1.5000    5.1962    0.0000 C   0  0  0  0  0  0  0  0  0  0  0  0
    0.0000    5.1962    0.0000 O   0  0  0  0  0  0  0  0  0  0  0  0
    2.2500    6.4952    0.0000 N   0  0  0  0  0  0  0  0  0  0  0  0
    1.5000    7.7942    0.0000 C   0  0  0  0  0  0  0  0  0  0  0  0
    2.2500    9.0933    0.0000 C   0  0  0  0  0  0  0  0  0  0  0  0
    1.5000   10.3923    0.0000 C   0  0  0  0  0  0  0  0  0  0  0  0
    2.2500   11.6913    0.0000 C   0  0  0  0  0  0  0  0  0  0  0  0
    1.5000   12.9904    0.0000 C   0  0  0  0  0  0  0  0  0  0  0  0
    0.0000   12.9904    0.0000 C   0  0  0  0  0  0  0  0  0  0  0  0
   -0.7500   11.6913    0.0000 C   0  0  0  0  0  0  0  0  0  0  0  0
    0.0000   10.3923    0.0000 C   0  0  0  0  0  0  0  0  0  0  0  0
    0.0000    7.7942    0.0000 C   0  0  0  0  0  0  0  0  0  0  0  0
   -0.7500    6.4952    0.0000 O   0  0  0  0  0  0  0  0  0  0  0  0
   -0.7500    9.0933    0.0000 N   0  0  0  0  0  0  0  0  0  0  0  0
   -2.2500    9.0933    0.0000 C   0  0  0  0  0  0  0  0  0  0  0  0
   -3.0000   10.3923    0.0000 C   0  0  0  0  0  0  0  0  0  0  0  0
   -4.5000   10.3923    0.0000 C   0  0  0  0  0  0  0  0  0  0  0  0
   -5.2500   11.6913    0.0000 C   0  0  0  0  0  0  0  0  0  0  0  0
   -6.7500   11.6913    0.0000 C   0  0  0  0  0  0  0  0  0  0  0  0
   -7.5000   10.3923    0.0000 C   0  0  0  0  0  0  0  0  0  0  0  0
   -6.7500    9.0933    0.0000 C   0  0  0  0  0  0  0  0  0  0  0  0
   -5.2500    9.0933    0.0000 C   0  0  0  0  0  0  0  0  0  0  0  0
   -3.0000    7.7942    0.0000 C   0  0  0  0  0  0  0  0  0  0  0  0
   -2.2500    6.4952    0.0000 O   0  0  0  0  0  0  0  0  0  0  0  0
   -4.5000    7.7942    0.0000 O   0  0  0  0  0  0  0  0  0  0  0  0
  1  2  1  0
  2  3  1  0
  2  4  1  0
  2  5  1  0
  5  6  1  0
  6  7  1  0
  7  8  2  0
  7  9  2  0
  7 10  1  0
 10 11  2  0
 11 12  1  0
 12 13  2  0
 13 14  1  0
 14 15  2  0
  5 16  1  0
 16 17  2  0
 16 18  1  0
 18 19  1  0
 19 20  1  0
 20 21  1  0
 21 22  2  0
 22 23  1  0
 23 24  2  0
 24 25  1  0
 25 26  2  0
 19 27  1  0
 27 28  2  0
 27 29  1  0
 29 30  1  0
 30 31  1  0
 31 32  1  0
 32 33  2  0
 33 34  1  0
 34 35  2  0
 35 36  1  0
 36 37  2  0
 30 38  1  0
 38 39  2  0
 38 40  1  0
 40 41  1  0
 41 42  1  0
 42 43  1  0
 43 44  2  0
 44 45  1  0
 45 46  2  0
 46 47  1  0
 47 48  2  0
 41 49  1  0
 49 50  2  0
 49 51  1  0
 51 52  1  0
 52 53  1  0
 53 54  1  0
 54 55  2  0
 55 56  1  0
 56 57  2  0
 57 58  1  0
 58 59  2  0
 52 60  1  0
 60 61  2  0
 60 62  1  0
 62 63  1  0
 63 64  1  0
 64 65  1  0
 65 66  2  0
 66 67  1  0
 67 68  2  0
 68 69  1  0
 69 70  2  0
 63 71  1  0
 71 72  2  0
 71 73  1  0
 15 10  1  0
 26 21  1  0
 37 32  1  0
 48 43  1  0
 59 54  1  0
 70 65  1  0
M  END
>  <Title>  (42) 
idAABPgen7

$$$$

     RDKit          2D

 18 20  0  0  0  0  0  0  0  0999 V2000
   -3.5663    6.3730    0.0000 C   0  0  0  0  0  0  0  0  0  0  0  0
   -4.2473    5.0365    0.0000 C   0  0  0  0  0  0  0  0  0  0  0  0
   -4.9283    3.7000    0.0000 C   0  0  0  0  0  0  0  0  0  0  0  0
   -5.5838    5.7175    0.0000 C   0  0  0  0  0  0  0  0  0  0  0  0
   -2.9108    4.3555    0.0000 N   0  0  0  0  0  0  0  0  0  0  0  0
   -2.8323    2.8576    0.0000 C   0  0  0  0  0  0  0  0  0  0  0  0
   -4.0903    2.0406    0.0000 O   0  0  0  0  0  0  0  0  0  0  0  0
   -1.4958    2.1766    0.0000 C   0  0  0  0  0  0  0  0  0  0  0  0
   -0.0692    2.6401    0.0000 C   0  0  0  0  0  0  0  0  0  0  0  0
    0.3943    1.2135    0.0000 C   0  0  0  0  0  0  0  0  0  0  0  0
    1.2760    0.0000    0.0000 C   0  0  0  0  0  0  0  0  0  0  0  0
    0.3943   -1.2135    0.0000 C   0  0  0  0  0  0  0  0  0  0  0  0
    0.8578   -2.6401    0.0000 C   0  0  0  0  0  0  0  0  0  0  0  0
   -0.1459   -3.7548    0.0000 C   0  0  0  0  0  0  0  0  0  0  0  0
   -0.4577   -5.2220    0.0000 C   0  0  0  0  0  0  0  0  0  0  0  0
   -1.5725   -4.2184    0.0000 C   0  0  0  0  0  0  0  0  0  0  0  0
   -1.0323   -0.7500    0.0000 C   0  0  0  0  0  0  0  0  0  0  0  0
   -1.0323    0.7500    0.0000 C   0  0  0  0  0  0  0  0  0  0  0  0
  1  2  1  0
  2  3  1  0
  2  4  1  0
  2  5  1  0
  5  6  1  0
  6  7  2  0
  6  8  1  0
  8  9  1  0
  9 10  1  0
 10 11  1  0
 11 12  1  0
 12 13  1  0
 13 14  1  0
 14 15  1  0
 15 16  1  0
 12 17  1  0
 17 18  1  0
 18  8  1  0
 18 10  1  0
 16 14  1  0
M  END
>  <Title>  (43) 
idAABQgen7

$$$$

     RDKit          2D

 53 57  0  0  0  0  0  0  0  0999 V2000
   -5.1149   10.5078    0.0000 C   0  0  0  0  0  0  0  0  0  0  0  0
   -6.4140    9.7578    0.0000 C   0  0  0  0  0  0  0  0  0  0  0  0
   -7.7130    9.0078    0.0000 C   0  0  0  0  0  0  0  0  0  0  0  0
   -7.1640   11.0568    0.0000 C   0  0  0  0  0  0  0  0  0  0  0  0
   -5.6640    8.4587    0.0000 N   0  0  0  0  0  0  0  0  0  0  0  0
   -6.4140    7.1597    0.0000 C   0  0  0  0  0  0  0  0  0  0  0  0
   -5.6640    5.8606    0.0000 C   0  0  0  0  0  0  0  0  0  0  0  0
   -4.1640    5.8606    0.0000 O   0  0  0  0  0  0  0  0  0  0  0  0
   -6.4140    4.5616    0.0000 C   0  0  0  0  0  0  0  0  0  0  0  0
   -7.9140    4.5616    0.0000 C   0  0  0  0  0  0  0  0  0  0  0  0
   -8.6640    5.8606    0.0000 C   0  0  0  0  0  0  0  0  0  0  0  0
   -7.9140    7.1597    0.0000 C   0  0  0  0  0  0  0  0  0  0  0  0
   -8.6640    8.4587    0.0000 C   0  0  0  0  0  0  0  0  0  0  0  0
  -10.1640    8.4587    0.0000 C   0  0  0  0  0  0  0  0  0  0  0  0
  -10.9140    7.1597    0.0000 C   0  0  0  0  0  0  0  0  0  0  0  0
  -10.1640    5.8606    0.0000 C   0  0  0  0  0  0  0  0  0  0  0  0
   -5.6640    3.2626    0.0000 N   0  0  0  0  0  0  0  0  0  0  0  0
   -4.1640    3.2626    0.0000 C   0  0  0  0  0  0  0  0  0  0  0  0
   -3.4140    4.5616    0.0000 O   0  0  0  0  0  0  0  0  0  0  0  0
   -3.4140    1.9635    0.0000 O   0  0  0  0  0  0  0  0  0  0  0  0
   -1.9140    1.9635    0.0000 C   0  0  0  0  0  0  0  0  0  0  0  0
   -1.0323    3.1771    0.0000 C   0  0  0  0  0  0  0  0  0  0  0  0
    0.3943    2.7135    0.0000 O   0  0  0  0  0  0  0  0  0  0  0  0
    0.3943    1.2135    0.0000 C   0  0  0  0  0  0  0  0  0  0  0  0
    1.2760    0.0000    0.0000 O   0  0  0  0  0  0  0  0  0  0  0  0
    0.3943   -1.2135    0.0000 C   0  0  0  0  0  0  0  0  0  0  0  0
   -1.0323   -0.7500    0.0000 C   0  0  0  0  0  0  0  0  0  0  0  0
   -1.0323    0.7500    0.0000 C   0  0  0  0  0  0  0  0  0  0  0  0
   -4.1640    8.4587    0.0000 S   0  0  0  0  0  0  0  0  0  0  0  0
   -4.1640    6.9587    0.0000 O   0  0  0  0  0  0  0  0  0  0  0  0
   -4.1640    9.9587    0.0000 O   0  0  0  0  0  0  0  0  0  0  0  0
   -2.6640    8.4587    0.0000 C   0  0  0  0  0  0  0  0  0  0  0  0
   -1.9140    7.1597    0.0000 C   0  0  0  0  0  0  0  0  0  0  0  0
   -0.4140    7.1597    0.0000 C   0  0  0  0  0  0  0  0  0  0  0  0
    0.3360    8.4587    0.0000 C   0  0  0  0  0  0  0  0  0  0  0  0
    1.8360    8.4587    0.0000 N   0  0  0  0  0  0  0  0  0  0  0  0
    2.5860    7.1597    0.0000 C   0  0  0  0  0  0  0  0  0  0  0  0
    1.8360    5.8606    0.0000 O   0  0  0  0  0  0  0  0  0  0  0  0
    4.0860    7.1597    0.0000 C   0  0  0  0  0  0  0  0  0  0  0  0
    4.8360    8.4587    0.0000 O   0  0  0  0  0  0  0  0  0  0  0  0
    4.8360    5.8606    0.0000 C   0  0  0  0  0  0  0  0  0  0  0  0
    6.3360    5.8606    0.0000 C   0  0  0  0  0  0  0  0  0  0  0  0
    7.0860    4.5616    0.0000 C   0  0  0  0  0  0  0  0  0  0  0  0
    6.3360    3.2626    0.0000 C   0  0  0  0  0  0  0  0  0  0  0  0
    7.0860    1.9635    0.0000 C   0  0  0  0  0  0  0  0  0  0  0  0
    8.5860    1.9635    0.0000 C   0  0  0  0  0  0  0  0  0  0  0  0
    9.3360    3.2626    0.0000 C   0  0  0  0  0  0  0  0  0  0  0  0
    8.5860    4.5616    0.0000 C   0  0  0  0  0  0  0  0  0  0  0  0
    4.0860    4.5616    0.0000 C   0  0  0  0  0  0  0  0  0  0  0  0
    2.5860    4.5616    0.0000 O   0  0  0  0  0  0  0  0  0  0  0  0
    4.8360    3.2626    0.0000 O   0  0  0  0  0  0  0  0  0  0  0  0
   -0.4140    9.7578    0.0000 C   0  0  0  0  0  0  0  0  0  0  0  0
   -1.9140    9.7578    0.0000 C   0  0  0  0  0  0  0  0  0  0  0  0
  1  2  1  0
  2  3  1  0
  2  4  1  0
  2  5  1  0
  5  6  1  0
  6  7  1  0
  7  8  1  0
  7  9  1  0
  9 10  1  0
 10 11  1  0
 11 12  2  0
 12 13  1  0
 13 14  2  0
 14 15  1  0
 15 16  2  0
  9 17  1  0
 17 18  1  0
 18 19  2  0
 18 20  1  0
 20 21  1  0
 21 22  1  0
 22 23  1  0
 23 24  1  0
 24 25  1  0
 25 26  1  0
 26 27  1  0
 27 28  1  0
  5 29  1  0
 29 30  2  0
 29 31  2  0
 29 32  1  0
 32 33  2  0
 33 34  1  0
 34 35  2  0
 35 36  1  0
 36 37  1  0
 37 38  2  0
 37 39  1  0
 39 40  1  0
 39 41  1  0
 41 42  1  0
 42 43  1  0
 43 44  2  0
 44 45  1  0
 45 46  2  0
 46 47  1  0
 47 48  2  0
 41 49  1  0
 49 50  2  0
 49 51  1  0
 35 52  1  0
 52 53  2  0
 16 11  1  0
 28 21  1  0
 53 32  1  0
 28 24  1  0
 48 43  1  0
M  END
>  <Title>  (44) 
idAABRgen7

$$$$

     RDKit          2D

 65 70  0  0  0  0  0  0  0  0999 V2000
   -7.9140    5.6597    0.0000 C   0  0  0  0  0  0  0  0  0  0  0  0
   -7.9140    7.1597    0.0000 C   0  0  0  0  0  0  0  0  0  0  0  0
   -7.9140    8.6597    0.0000 C   0  0  0  0  0  0  0  0  0  0  0  0
   -9.4140    7.1597    0.0000 C   0  0  0  0  0  0  0  0  0  0  0  0
   -6.4140    7.1597    0.0000 C   0  0  0  0  0  0  0  0  0  0  0  0
   -5.6640    8.4587    0.0000 C   0  0  0  0  0  0  0  0  0  0  0  0
   -6.4140    9.7578    0.0000 N   0  0  0  0  0  0  0  0  0  0  0  0
   -5.6640   11.0568    0.0000 C   0  0  0  0  0  0  0  0  0  0  0  0
   -4.1640   11.0568    0.0000 O   0  0  0  0  0  0  0  0  0  0  0  0
   -6.4140   12.3558    0.0000 C   0  0  0  0  0  0  0  0  0  0  0  0
   -7.9140   12.3558    0.0000 C   0  0  0  0  0  0  0  0  0  0  0  0
   -8.6640   11.0568    0.0000 C   0  0  0  0  0  0  0  0  0  0  0  0
   -7.9140    9.7578    0.0000 C   0  0  0  0  0  0  0  0  0  0  0  0
   -8.6640    8.4587    0.0000 C   0  0  0  0  0  0  0  0  0  0  0  0
  -10.1640    8.4587    0.0000 C   0  0  0  0  0  0  0  0  0  0  0  0
  -10.9140    9.7578    0.0000 C   0  0  0  0  0  0  0  0  0  0  0  0
  -10.1640   11.0568    0.0000 C   0  0  0  0  0  0  0  0  0  0  0  0
   -5.6640   13.6549    0.0000 N   0  0  0  0  0  0  0  0  0  0  0  0
   -4.1640   13.6549    0.0000 C   0  0  0  0  0  0  0  0  0  0  0  0
   -3.4140   12.3558    0.0000 O   0  0  0  0  0  0  0  0  0  0  0  0
   -3.4140   14.9539    0.0000 O   0  0  0  0  0  0  0  0  0  0  0  0
   -1.9140   14.9539    0.0000 C   0  0  0  0  0  0  0  0  0  0  0  0
   -1.0323   13.7404    0.0000 C   0  0  0  0  0  0  0  0  0  0  0  0
    0.3943   14.2039    0.0000 O   0  0  0  0  0  0  0  0  0  0  0  0
    0.3943   15.7039    0.0000 C   0  0  0  0  0  0  0  0  0  0  0  0
    1.2760   16.9174    0.0000 O   0  0  0  0  0  0  0  0  0  0  0  0
    0.3943   18.1310    0.0000 O   0  0  0  0  0  0  0  0  0  0  0  0
   -1.0323   17.6674    0.0000 C   0  0  0  0  0  0  0  0  0  0  0  0
   -1.0323   16.1674    0.0000 C   0  0  0  0  0  0  0  0  0  0  0  0
   -4.1640    8.4587    0.0000 S   0  0  0  0  0  0  0  0  0  0  0  0
   -4.1640    6.9587    0.0000 O   0  0  0  0  0  0  0  0  0  0  0  0
   -4.1640    9.9587    0.0000 O   0  0  0  0  0  0  0  0  0  0  0  0
   -2.6640    8.4587    0.0000 C   0  0  0  0  0  0  0  0  0  0  0  0
   -1.9140    7.1597    0.0000 C   0  0  0  0  0  0  0  0  0  0  0  0
   -0.4140    7.1597    0.0000 C   0  0  0  0  0  0  0  0  0  0  0  0
    0.3360    8.4587    0.0000 C   0  0  0  0  0  0  0  0  0  0  0  0
    1.8360    8.4587    0.0000 N   0  0  0  0  0  0  0  0  0  0  0  0
    2.5860    7.1597    0.0000 C   0  0  0  0  0  0  0  0  0  0  0  0
    1.8360    5.8606    0.0000 O   0  0  0  0  0  0  0  0  0  0  0  0
    4.0860    7.1597    0.0000 C   0  0  0  0  0  0  0  0  0  0  0  0
    4.8360    8.4587    0.0000 O   0  0  0  0  0  0  0  0  0  0  0  0
    4.8360    5.8606    0.0000 C   0  0  0  0  0  0  0  0  0  0  0  0
    6.3360    5.8606    0.0000 C   0  0  0  0  0  0  0  0  0  0  0  0
    7.0860    4.5616    0.0000 C   0  0  0  0  0  0  0  0  0  0  0  0
    6.3360    3.2626    0.0000 C   0  0  0  0  0  0  0  0  0  0  0  0
    7.0860    1.9635    0.0000 C   0  0  0  0  0  0  0  0  0  0  0  0
    8.5860    1.9635    0.0000 C   0  0  0  0  0  0  0  0  0  0  0  0
    9.3360    3.2626    0.0000 C   0  0  0  0  0  0  0  0  0  0  0  0
    8.5860    4.5616    0.0000 C   0  0  0  0  0  0  0  0  0  0  0  0
    4.0860    4.5616    0.0000 C   0  0  0  0  0  0  0  0  0  0  0  0
    2.5860    4.5616    0.0000 O   0  0  0  0  0  0  0  0  0  0  0  0
    4.8360    3.2626    0.0000 N   0  0  0  0  0  0  0  0  0  0  0  0
    4.0860    1.9635    0.0000 C   0  0  0  0  0  0  0  0  0  0  0  0
    4.8360    0.6645    0.0000 C   0  0  0  0  0  0  0  0  0  0  0  0
    4.0860   -0.6346    0.0000 C   0  0  0  0  0  0  0  0  0  0  0  0
    2.5860   -0.6346    0.0000 C   0  0  0  0  0  0  0  0  0  0  0  0
    1.8360   -1.9336    0.0000 C   0  0  0  0  0  0  0  0  0  0  0  0
    2.5860   -3.2326    0.0000 C   0  0  0  0  0  0  0  0  0  0  0  0
    4.0860   -3.2326    0.0000 C   0  0  0  0  0  0  0  0  0  0  0  0
    4.8360   -1.9336    0.0000 C   0  0  0  0  0  0  0  0  0  0  0  0
    2.5860    1.9635    0.0000 C   0  0  0  0  0  0  0  0  0  0  0  0
    1.8360    3.2626    0.0000 O   0  0  0  0  0  0  0  0  0  0  0  0
    1.8360    0.6645    0.0000 O   0  0  0  0  0  0  0  0  0  0  0  0
   -0.4140    9.7578    0.0000 C   0  0  0  0  0  0  0  0  0  0  0  0
   -1.9140    9.7578    0.0000 C   0  0  0  0  0  0  0  0  0  0  0  0
  1  2  1  0
  2  3  1  0
  2  4  1  0
  2  5  1  0
  5  6  1  0
  6  7  1  0
  7  8  1  0
  8  9  2  0
  8 10  1  0
 10 11  1  0
 11 12  1  0
 12 13  2  0
 13 14  1  0
 14 15  2  0
 15 16  1  0
 16 17  2  0
 10 18  1  0
 18 19  1  0
 19 20  2  0
 19 21  1  0
 21 22  1  0
 22 23  1  0
 23 24  1  0
 24 25  1  0
 25 26  1  0
 26 27  1  0
 27 28  1  0
 28 29  1  0
  6 30  1  0
 30 31  2  0
 30 32  2  0
 30 33  1  0
 33 34  2  0
 34 35  1  0
 35 36  2  0
 36 37  1  0
 37 38  1  0
 38 39  2  0
 38 40  1  0
 40 41  1  0
 40 42  1  0
 42 43  1  0
 43 44  1  0
 44 45  2  0
 45 46  1  0
 46 47  2  0
 47 48  1  0
 48 49  2  0
 42 50  1  0
 50 51  2  0
 50 52  1  0
 52 53  1  0
 53 54  1  0
 54 55  1  0
 55 56  2  0
 56 57  1  0
 57 58  2  0
 58 59  1  0
 59 60  2  0
 53 61  1  0
 61 62  2  0
 61 63  1  0
 36 64  1  0
 64 65  2  0
 17 12  1  0
 29 22  1  0
 65 33  1  0
 29 25  1  0
 49 44  1  0
 60 55  1  0
M  END
>  <Title>  (45) 
idAABSgen7

$$$$

     RDKit          2D

 56 61  0  0  0  0  0  0  0  0999 V2000
   -7.9140   11.2578    0.0000 C   0  0  0  0  0  0  0  0  0  0  0  0
   -7.9140    9.7578    0.0000 C   0  0  0  0  0  0  0  0  0  0  0  0
   -7.9140    8.2578    0.0000 C   0  0  0  0  0  0  0  0  0  0  0  0
   -9.4140    9.7578    0.0000 C   0  0  0  0  0  0  0  0  0  0  0  0
   -6.4140    9.7578    0.0000 C   0  0  0  0  0  0  0  0  0  0  0  0
   -5.6640    8.4587    0.0000 C   0  0  0  0  0  0  0  0  0  0  0  0
   -6.4140    7.1597    0.0000 N   0  0  0  0  0  0  0  0  0  0  0  0
   -5.6640    5.8606    0.0000 C   0  0  0  0  0  0  0  0  0  0  0  0
   -4.1640    5.8606    0.0000 O   0  0  0  0  0  0  0  0  0  0  0  0
   -6.4140    4.5616    0.0000 C   0  0  0  0  0  0  0  0  0  0  0  0
   -7.9140    4.5616    0.0000 C   0  0  0  0  0  0  0  0  0  0  0  0
   -8.6640    5.8606    0.0000 C   0  0  0  0  0  0  0  0  0  0  0  0
   -7.9140    7.1597    0.0000 C   0  0  0  0  0  0  0  0  0  0  0  0
   -8.6640    8.4587    0.0000 C   0  0  0  0  0  0  0  0  0  0  0  0
  -10.1640    8.4587    0.0000 C   0  0  0  0  0  0  0  0  0  0  0  0
  -10.9140    7.1597    0.0000 C   0  0  0  0  0  0  0  0  0  0  0  0
  -10.1640    5.8606    0.0000 C   0  0  0  0  0  0  0  0  0  0  0  0
   -5.6640    3.2626    0.0000 N   0  0  0  0  0  0  0  0  0  0  0  0
   -4.1640    3.2626    0.0000 C   0  0  0  0  0  0  0  0  0  0  0  0
   -3.4140    4.5616    0.0000 O   0  0  0  0  0  0  0  0  0  0  0  0
   -3.4140    1.9635    0.0000 O   0  0  0  0  0  0  0  0  0  0  0  0
   -1.9140    1.9635    0.0000 C   0  0  0  0  0  0  0  0  0  0  0  0
   -1.0323    3.1771    0.0000 C   0  0  0  0  0  0  0  0  0  0  0  0
    0.3943    2.7135    0.0000 O   0  0  0  0  0  0  0  0  0  0  0  0
    0.3943    1.2135    0.0000 C   0  0  0  0  0  0  0  0  0  0  0  0
    1.2760    0.0000    0.0000 O   0  0  0  0  0  0  0  0  0  0  0  0
    0.3943   -1.2135    0.0000 C   0  0  0  0  0  0  0  0  0  0  0  0
   -1.0323   -0.7500    0.0000 C   0  0  0  0  0  0  0  0  0  0  0  0
   -1.0323    0.7500    0.0000 C   0  0  0  0  0  0  0  0  0  0  0  0
   -4.1640    8.4587    0.0000 S   0  0  0  0  0  0  0  0  0  0  0  0
   -4.1640    9.9587    0.0000 O   0  0  0  0  0  0  0  0  0  0  0  0
   -4.1640    6.9587    0.0000 O   0  0  0  0  0  0  0  0  0  0  0  0
   -2.6640    8.4587    0.0000 C   0  0  0  0  0  0  0  0  0  0  0  0
   -1.9140    9.7578    0.0000 C   0  0  0  0  0  0  0  0  0  0  0  0
   -0.4140    9.7578    0.0000 C   0  0  0  0  0  0  0  0  0  0  0  0
    0.3360    8.4587    0.0000 C   0  0  0  0  0  0  0  0  0  0  0  0
    1.8360    8.4587    0.0000 N   0  0  0  0  0  0  0  0  0  0  0  0
    2.5860    9.7578    0.0000 C   0  0  0  0  0  0  0  0  0  0  0  0
    1.8360   11.0568    0.0000 O   0  0  0  0  0  0  0  0  0  0  0  0
    4.0860    9.7578    0.0000 C   0  0  0  0  0  0  0  0  0  0  0  0
    4.8360   11.0568    0.0000 C   0  0  0  0  0  0  0  0  0  0  0  0
    6.3360   11.0568    0.0000 C   0  0  0  0  0  0  0  0  0  0  0  0
    7.0860    9.7578    0.0000 C   0  0  0  0  0  0  0  0  0  0  0  0
    8.5860    9.7578    0.0000 S   0  0  0  0  0  0  0  0  0  0  0  0
    8.5860   11.2578    0.0000 O   0  0  0  0  0  0  0  0  0  0  0  0
    8.5860    8.2578    0.0000 O   0  0  0  0  0  0  0  0  0  0  0  0
   10.0860    9.7578    0.0000 N   0  0  0  0  0  0  0  0  0  0  0  0
   10.8360   11.0568    0.0000 C   0  0  0  0  0  0  0  0  0  0  0  0
   12.3360   11.0568    0.0000 C   0  0  0  0  0  0  0  0  0  0  0  0
   13.0860    9.7578    0.0000 O   0  0  0  0  0  0  0  0  0  0  0  0
   12.3360    8.4587    0.0000 C   0  0  0  0  0  0  0  0  0  0  0  0
   10.8360    8.4587    0.0000 C   0  0  0  0  0  0  0  0  0  0  0  0
    6.3360    8.4587    0.0000 C   0  0  0  0  0  0  0  0  0  0  0  0
    4.8360    8.4587    0.0000 C   0  0  0  0  0  0  0  0  0  0  0  0
   -0.4140    7.1597    0.0000 C   0  0  0  0  0  0  0  0  0  0  0  0
   -1.9140    7.1597    0.0000 C   0  0  0  0  0  0  0  0  0  0  0  0
  1  2  1  0
  2  3  1  0
  2  4  1  0
  2  5  1  0
  5  6  1  0
  6  7  1  0
  7  8  1  0
  8  9  2  0
  8 10  1  0
 10 11  1  0
 11 12  1  0
 12 13  2  0
 13 14  1  0
 14 15  2  0
 15 16  1  0
 16 17  2  0
 10 18  1  0
 18 19  1  0
 19 20  2  0
 19 21  1  0
 21 22  1  0
 22 23  1  0
 23 24  1  0
 24 25  1  0
 25 26  1  0
 26 27  1  0
 27 28  1  0
 28 29  1  0
  6 30  1  0
 30 31  2  0
 30 32  2  0
 30 33  1  0
 33 34  2  0
 34 35  1  0
 35 36  2  0
 36 37  1  0
 37 38  1  0
 38 39  2  0
 38 40  1  0
 40 41  2  0
 41 42  1  0
 42 43  2  0
 43 44  1  0
 44 45  2  0
 44 46  2  0
 44 47  1  0
 47 48  1  0
 48 49  1  0
 49 50  1  0
 50 51  1  0
 51 52  1  0
 43 53  1  0
 53 54  2  0
 36 55  1  0
 55 56  2  0
 17 12  1  0
 29 22  1  0
 56 33  1  0
 29 25  1  0
 54 40  1  0
 52 47  1  0
M  END
>  <Title>  (46) 
idAABTgen7

$$$$

     RDKit          2D

 57 62  0  0  0  0  0  0  0  0999 V2000
    0.3360    3.2626    0.0000 C   0  0  0  0  0  0  0  0  0  0  0  0
    1.0860    4.5616    0.0000 N   0  0  0  0  0  0  0  0  0  0  0  0
    0.3360    5.8606    0.0000 C   0  0  0  0  0  0  0  0  0  0  0  0
   -1.1640    5.8606    0.0000 O   0  0  0  0  0  0  0  0  0  0  0  0
    1.0860    7.1597    0.0000 C   0  0  0  0  0  0  0  0  0  0  0  0
    2.5860    7.1597    0.0000 C   0  0  0  0  0  0  0  0  0  0  0  0
    3.3360    5.8606    0.0000 C   0  0  0  0  0  0  0  0  0  0  0  0
    2.5860    4.5616    0.0000 C   0  0  0  0  0  0  0  0  0  0  0  0
    3.3360    3.2626    0.0000 C   0  0  0  0  0  0  0  0  0  0  0  0
    4.8360    3.2626    0.0000 C   0  0  0  0  0  0  0  0  0  0  0  0
    5.5860    4.5616    0.0000 C   0  0  0  0  0  0  0  0  0  0  0  0
    4.8360    5.8606    0.0000 C   0  0  0  0  0  0  0  0  0  0  0  0
    0.3360    8.4587    0.0000 N   0  0  0  0  0  0  0  0  0  0  0  0
   -1.1640    8.4587    0.0000 C   0  0  0  0  0  0  0  0  0  0  0  0
   -1.9140    7.1597    0.0000 O   0  0  0  0  0  0  0  0  0  0  0  0
   -1.9140    9.7578    0.0000 C   0  0  0  0  0  0  0  0  0  0  0  0
   -1.1640   11.0568    0.0000 C   0  0  0  0  0  0  0  0  0  0  0  0
    0.3360   11.0568    0.0000 C   0  0  0  0  0  0  0  0  0  0  0  0
    1.0860    9.7578    0.0000 C   0  0  0  0  0  0  0  0  0  0  0  0
    2.5860    9.7578    0.0000 C   0  0  0  0  0  0  0  0  0  0  0  0
    3.3360   11.0568    0.0000 C   0  0  0  0  0  0  0  0  0  0  0  0
    2.5860   12.3558    0.0000 C   0  0  0  0  0  0  0  0  0  0  0  0
    1.0860   12.3558    0.0000 C   0  0  0  0  0  0  0  0  0  0  0  0
   -3.4140    9.7578    0.0000 N   0  0  0  0  0  0  0  0  0  0  0  0
   -4.1640    8.4587    0.0000 C   0  0  0  0  0  0  0  0  0  0  0  0
   -3.4140    7.1597    0.0000 O   0  0  0  0  0  0  0  0  0  0  0  0
   -5.6640    8.4587    0.0000 C   0  0  0  0  0  0  0  0  0  0  0  0
   -6.4140    9.7578    0.0000 C   0  0  0  0  0  0  0  0  0  0  0  0
   -5.6640   11.0568    0.0000 C   0  0  0  0  0  0  0  0  0  0  0  0
   -4.1640   11.0568    0.0000 C   0  0  0  0  0  0  0  0  0  0  0  0
   -3.4140   12.3558    0.0000 C   0  0  0  0  0  0  0  0  0  0  0  0
   -4.1640   13.6549    0.0000 C   0  0  0  0  0  0  0  0  0  0  0  0
   -5.6640   13.6549    0.0000 C   0  0  0  0  0  0  0  0  0  0  0  0
   -6.4140   12.3558    0.0000 C   0  0  0  0  0  0  0  0  0  0  0  0
   -6.4140    7.1597    0.0000 N   0  0  0  0  0  0  0  0  0  0  0  0
   -5.6640    5.8606    0.0000 C   0  0  0  0  0  0  0  0  0  0  0  0
   -4.1640    5.8606    0.0000 O   0  0  0  0  0  0  0  0  0  0  0  0
   -6.4140    4.5616    0.0000 C   0  0  0  0  0  0  0  0  0  0  0  0
   -7.9140    4.5616    0.0000 C   0  0  0  0  0  0  0  0  0  0  0  0
   -8.6640    5.8606    0.0000 C   0  0  0  0  0  0  0  0  0  0  0  0
   -7.9140    7.1597    0.0000 C   0  0  0  0  0  0  0  0  0  0  0  0
   -8.6640    8.4587    0.0000 C   0  0  0  0  0  0  0  0  0  0  0  0
  -10.1640    8.4587    0.0000 C   0  0  0  0  0  0  0  0  0  0  0  0
  -10.9140    7.1597    0.0000 C   0  0  0  0  0  0  0  0  0  0  0  0
  -10.1640    5.8606    0.0000 C   0  0  0  0  0  0  0  0  0  0  0  0
   -5.6640    3.2626    0.0000 N   0  0  0  0  0  0  0  0  0  0  0  0
   -4.1640    3.2626    0.0000 C   0  0  0  0  0  0  0  0  0  0  0  0
   -3.4140    4.5616    0.0000 O   0  0  0  0  0  0  0  0  0  0  0  0
   -3.4140    1.9635    0.0000 O   0  0  0  0  0  0  0  0  0  0  0  0
   -4.1640    0.6645    0.0000 C   0  0  0  0  0  0  0  0  0  0  0  0
   -5.6557    0.5077    0.0000 C   0  0  0  0  0  0  0  0  0  0  0  0
   -5.9676   -0.9595    0.0000 O   0  0  0  0  0  0  0  0  0  0  0  0
   -4.6686   -1.7095    0.0000 C   0  0  0  0  0  0  0  0  0  0  0  0
   -4.0585   -3.0798    0.0000 O   0  0  0  0  0  0  0  0  0  0  0  0
   -2.5667   -2.9231    0.0000 C   0  0  0  0  0  0  0  0  0  0  0  0
   -2.2548   -1.4558    0.0000 C   0  0  0  0  0  0  0  0  0  0  0  0
   -3.5539   -0.7058    0.0000 C   0  0  0  0  0  0  0  0  0  0  0  0
  1  2  1  0
  2  3  1  0
  3  4  2  0
  3  5  1  0
  5  6  1  0
  6  7  1  0
  7  8  2  0
  8  9  1  0
  9 10  2  0
 10 11  1  0
 11 12  2  0
  5 13  1  0
 13 14  1  0
 14 15  2  0
 14 16  1  0
 16 17  1  0
 17 18  1  0
 18 19  2  0
 19 20  1  0
 20 21  2  0
 21 22  1  0
 22 23  2  0
 16 24  1  0
 24 25  1  0
 25 26  2  0
 25 27  1  0
 27 28  1  0
 28 29  1  0
 29 30  2  0
 30 31  1  0
 31 32  2  0
 32 33  1  0
 33 34  2  0
 27 35  1  0
 35 36  1  0
 36 37  2  0
 36 38  1  0
 38 39  1  0
 39 40  1  0
 40 41  2  0
 41 42  1  0
 42 43  2  0
 43 44  1  0
 44 45  2  0
 38 46  1  0
 46 47  1  0
 47 48  2  0
 47 49  1  0
 49 50  1  0
 50 51  1  0
 51 52  1  0
 52 53  1  0
 53 54  1  0
 54 55  1  0
 55 56  1  0
 56 57  1  0
 12  7  1  0
 23 18  1  0
 34 29  1  0
 45 40  1  0
 57 50  1  0
 57 53  1  0
M  END
>  <Title>  (47) 
idAABUgen7

$$$$

     RDKit          2D

 25 27  0  0  0  0  0  0  0  0999 V2000
    7.9460    1.6299    0.0000 C   0  0  0  0  0  0  0  0  0  0  0  0
    6.4627    1.8535    0.0000 C   0  0  0  0  0  0  0  0  0  0  0  0
    5.5275    0.6808    0.0000 C   0  0  0  0  0  0  0  0  0  0  0  0
    4.0442    0.9043    0.0000 C   0  0  0  0  0  0  0  0  0  0  0  0
    3.4962    2.3006    0.0000 C   0  0  0  0  0  0  0  0  0  0  0  0
    2.0130    2.5242    0.0000 C   0  0  0  0  0  0  0  0  0  0  0  0
    1.4650    3.9205    0.0000 O   0  0  0  0  0  0  0  0  0  0  0  0
    1.0777    1.3515    0.0000 N   0  0  0  0  0  0  0  0  0  0  0  0
    1.7286    0.0000    0.0000 C   0  0  0  0  0  0  0  0  0  0  0  0
    1.0777   -1.3515    0.0000 C   0  0  0  0  0  0  0  0  0  0  0  0
   -0.3846   -1.6852    0.0000 C   0  0  0  0  0  0  0  0  0  0  0  0
   -1.5574   -0.7500    0.0000 N   0  0  0  0  0  0  0  0  0  0  0  0
   -2.9088   -1.4008    0.0000 C   0  0  0  0  0  0  0  0  0  0  0  0
   -3.0209   -2.8966    0.0000 O   0  0  0  0  0  0  0  0  0  0  0  0
   -4.1482   -0.5558    0.0000 C   0  0  0  0  0  0  0  0  0  0  0  0
   -4.0361    0.9400    0.0000 C   0  0  0  0  0  0  0  0  0  0  0  0
   -5.2755    1.7849    0.0000 C   0  0  0  0  0  0  0  0  0  0  0  0
   -6.6269    1.1341    0.0000 C   0  0  0  0  0  0  0  0  0  0  0  0
   -6.7390   -0.3617    0.0000 C   0  0  0  0  0  0  0  0  0  0  0  0
   -5.4997   -1.2067    0.0000 N   0  0  0  0  0  0  0  0  0  0  0  0
   -1.5574    0.7500    0.0000 C   0  0  0  0  0  0  0  0  0  0  0  0
   -0.3846    1.6852    0.0000 C   0  0  0  0  0  0  0  0  0  0  0  0
    4.4315    3.4734    0.0000 C   0  0  0  0  0  0  0  0  0  0  0  0
    5.9147    3.2498    0.0000 C   0  0  0  0  0  0  0  0  0  0  0  0
    6.8499    4.4226    0.0000 O   0  0  0  0  0  0  0  0  0  0  0  0
  1  2  1  0
  2  3  2  0
  3  4  1  0
  4  5  2  0
  5  6  1  0
  6  7  2  0
  6  8  1  0
  8  9  1  0
  9 10  1  0
 10 11  1  0
 11 12  1  0
 12 13  1  0
 13 14  2  0
 13 15  1  0
 15 16  2  0
 16 17  1  0
 17 18  2  0
 18 19  1  0
 19 20  2  0
 12 21  1  0
 21 22  1  0
  5 23  1  0
 23 24  2  0
 24 25  1  0
 24  2  1  0
 22  8  1  0
 20 15  1  0
M  END
>  <Title>  (48) 
idAABVgen7

$$$$

     RDKit          2D

 71 77  0  0  0  0  0  0  0  0999 V2000
    3.0000    0.0000    0.0000 C   0  0  0  0  0  0  0  0  0  0  0  0
    1.5000    0.0000    0.0000 C   0  0  0  0  0  0  0  0  0  0  0  0
    0.7500   -1.2990    0.0000 C   0  0  0  0  0  0  0  0  0  0  0  0
   -0.7500   -1.2990    0.0000 C   0  0  0  0  0  0  0  0  0  0  0  0
   -1.5000    0.0000    0.0000 C   0  0  0  0  0  0  0  0  0  0  0  0
   -3.0000    0.0000    0.0000 C   0  0  0  0  0  0  0  0  0  0  0  0
   -3.7500   -1.2990    0.0000 O   0  0  0  0  0  0  0  0  0  0  0  0
   -3.7500    1.2990    0.0000 N   0  0  0  0  0  0  0  0  0  0  0  0
   -3.0000    2.5981    0.0000 C   0  0  0  0  0  0  0  0  0  0  0  0
   -3.7500    3.8971    0.0000 C   0  0  0  0  0  0  0  0  0  0  0  0
   -5.2500    3.8971    0.0000 N   0  0  0  0  0  0  0  0  0  0  0  0
   -6.0000    5.1962    0.0000 C   0  0  0  0  0  0  0  0  0  0  0  0
   -7.5000    5.1962    0.0000 O   0  0  0  0  0  0  0  0  0  0  0  0
   -5.2500    6.4952    0.0000 C   0  0  0  0  0  0  0  0  0  0  0  0
   -5.8601    7.8655    0.0000 C   0  0  0  0  0  0  0  0  0  0  0  0
   -4.7454    8.8692    0.0000 C   0  0  0  0  0  0  0  0  0  0  0  0
   -3.4463    8.1192    0.0000 C   0  0  0  0  0  0  0  0  0  0  0  0
   -3.7582    6.6520    0.0000 O   0  0  0  0  0  0  0  0  0  0  0  0
   -6.0000    2.5981    0.0000 C   0  0  0  0  0  0  0  0  0  0  0  0
   -5.2500    1.2990    0.0000 C   0  0  0  0  0  0  0  0  0  0  0  0
   -0.7500    1.2990    0.0000 C   0  0  0  0  0  0  0  0  0  0  0  0
    0.7500    1.2990    0.0000 C   0  0  0  0  0  0  0  0  0  0  0  0
    1.5000    2.5981    0.0000 O   0  0  0  0  0  0  0  0  0  0  0  0
    0.7500    3.8971    0.0000 C   0  0  0  0  0  0  0  0  0  0  0  0
    1.5000    5.1962    0.0000 C   0  0  0  0  0  0  0  0  0  0  0  0
    3.0000    5.1962    0.0000 O   0  0  0  0  0  0  0  0  0  0  0  0
    0.7500    6.4952    0.0000 N   0  0  0  0  0  0  0  0  0  0  0  0
    1.5000    7.7942    0.0000 C   0  0  0  0  0  0  0  0  0  0  0  0
    0.7500    9.0933    0.0000 C   0  0  0  0  0  0  0  0  0  0  0  0
    1.5000   10.3923    0.0000 C   0  0  0  0  0  0  0  0  0  0  0  0
    3.0000   10.3923    0.0000 C   0  0  0  0  0  0  0  0  0  0  0  0
    3.7500   11.6913    0.0000 C   0  0  0  0  0  0  0  0  0  0  0  0
    3.0000   12.9904    0.0000 C   0  0  0  0  0  0  0  0  0  0  0  0
    1.5000   12.9904    0.0000 C   0  0  0  0  0  0  0  0  0  0  0  0
    0.7500   11.6913    0.0000 C   0  0  0  0  0  0  0  0  0  0  0  0
    3.0000    7.7942    0.0000 C   0  0  0  0  0  0  0  0  0  0  0  0
    3.7500    6.4952    0.0000 O   0  0  0  0  0  0  0  0  0  0  0  0
    3.7500    9.0933    0.0000 N   0  0  0  0  0  0  0  0  0  0  0  0
    5.2500    9.0933    0.0000 C   0  0  0  0  0  0  0  0  0  0  0  0
    6.0000   10.3923    0.0000 C   0  0  0  0  0  0  0  0  0  0  0  0
    7.5000   10.3923    0.0000 C   0  0  0  0  0  0  0  0  0  0  0  0
    8.2500    9.0933    0.0000 C   0  0  0  0  0  0  0  0  0  0  0  0
    9.7500    9.0933    0.0000 C   0  0  0  0  0  0  0  0  0  0  0  0
   10.5000   10.3923    0.0000 C   0  0  0  0  0  0  0  0  0  0  0  0
    9.7500   11.6913    0.0000 C   0  0  0  0  0  0  0  0  0  0  0  0
    8.2500   11.6913    0.0000 C   0  0  0  0  0  0  0  0  0  0  0  0
    6.0000    7.7942    0.0000 C   0  0  0  0  0  0  0  0  0  0  0  0
    5.2500    6.4952    0.0000 O   0  0  0  0  0  0  0  0  0  0  0  0
    7.5000    7.7942    0.0000 N   0  0  0  0  0  0  0  0  0  0  0  0
    8.2500    6.4952    0.0000 C   0  0  0  0  0  0  0  0  0  0  0  0
    9.7500    6.4952    0.0000 C   0  0  0  0  0  0  0  0  0  0  0  0
   10.5000    5.1962    0.0000 C   0  0  0  0  0  0  0  0  0  0  0  0
    9.7500    3.8971    0.0000 C   0  0  0  0  0  0  0  0  0  0  0  0
   10.5000    2.5981    0.0000 C   0  0  0  0  0  0  0  0  0  0  0  0
   12.0000    2.5981    0.0000 C   0  0  0  0  0  0  0  0  0  0  0  0
   12.7500    3.8971    0.0000 C   0  0  0  0  0  0  0  0  0  0  0  0
   12.0000    5.1962    0.0000 C   0  0  0  0  0  0  0  0  0  0  0  0
    7.5000    5.1962    0.0000 C   0  0  0  0  0  0  0  0  0  0  0  0
    6.0000    5.1962    0.0000 O   0  0  0  0  0  0  0  0  0  0  0  0
    8.2500    3.8971    0.0000 N   0  0  0  0  0  0  0  0  0  0  0  0
    7.5000    2.5981    0.0000 C   0  0  0  0  0  0  0  0  0  0  0  0
    8.2500    1.2990    0.0000 C   0  0  0  0  0  0  0  0  0  0  0  0
    7.5000   -0.0000    0.0000 C   0  0  0  0  0  0  0  0  0  0  0  0
    6.0000   -0.0000    0.0000 C   0  0  0  0  0  0  0  0  0  0  0  0
    5.2500   -1.2990    0.0000 C   0  0  0  0  0  0  0  0  0  0  0  0
    6.0000   -2.5981    0.0000 C   0  0  0  0  0  0  0  0  0  0  0  0
    7.5000   -2.5981    0.0000 C   0  0  0  0  0  0  0  0  0  0  0  0
    8.2500   -1.2990    0.0000 C   0  0  0  0  0  0  0  0  0  0  0  0
    6.0000    2.5981    0.0000 C   0  0  0  0  0  0  0  0  0  0  0  0
    5.2500    3.8971    0.0000 O   0  0  0  0  0  0  0  0  0  0  0  0
    5.2500    1.2990    0.0000 O   0  0  0  0  0  0  0  0  0  0  0  0
  1  2  1  0
  2  3  2  0
  3  4  1  0
  4  5  2  0
  5  6  1  0
  6  7  2  0
  6  8  1  0
  8  9  1  0
  9 10  1  0
 10 11  1  0
 11 12  1  0
 12 13  2  0
 12 14  1  0
 14 15  2  0
 15 16  1  0
 16 17  2  0
 17 18  1  0
 11 19  1  0
 19 20  1  0
  5 21  1  0
 21 22  2  0
 22 23  1  0
 23 24  1  0
 24 25  1  0
 25 26  2  0
 25 27  1  0
 27 28  1  0
 28 29  1  0
 29 30  1  0
 30 31  2  0
 31 32  1  0
 32 33  2  0
 33 34  1  0
 34 35  2  0
 28 36  1  0
 36 37  2  0
 36 38  1  0
 38 39  1  0
 39 40  1  0
 40 41  1  0
 41 42  2  0
 42 43  1  0
 43 44  2  0
 44 45  1  0
 45 46  2  0
 39 47  1  0
 47 48  2  0
 47 49  1  0
 49 50  1  0
 50 51  1  0
 51 52  1  0
 52 53  2  0
 53 54  1  0
 54 55  2  0
 55 56  1  0
 56 57  2  0
 50 58  1  0
 58 59  2  0
 58 60  1  0
 60 61  1  0
 61 62  1  0
 62 63  1  0
 63 64  2  0
 64 65  1  0
 65 66  2  0
 66 67  1  0
 67 68  2  0
 61 69  1  0
 69 70  2  0
 69 71  1  0
 22  2  1  0
 35 30  1  0
 46 41  1  0
 57 52  1  0
 68 63  1  0
 20  8  1  0
 18 14  1  0
M  END
>  <Title>  (49) 
idAABWgen7

$$$$

     RDKit          2D

 38 43  0  0  0  0  0  0  0  0999 V2000
    7.5811   -4.4391    0.0000 C   0  0  0  0  0  0  0  0  0  0  0  0
    6.4664   -3.4354    0.0000 C   0  0  0  0  0  0  0  0  0  0  0  0
    5.3517   -2.4317    0.0000 C   0  0  0  0  0  0  0  0  0  0  0  0
    7.4701   -2.3207    0.0000 C   0  0  0  0  0  0  0  0  0  0  0  0
    5.4627   -4.5501    0.0000 N   0  0  0  0  0  0  0  0  0  0  0  0
    3.9955   -4.2382    0.0000 C   0  0  0  0  0  0  0  0  0  0  0  0
    3.5320   -2.8116    0.0000 O   0  0  0  0  0  0  0  0  0  0  0  0
    2.9918   -5.3529    0.0000 C   0  0  0  0  0  0  0  0  0  0  0  0
    3.3037   -6.8202    0.0000 C   0  0  0  0  0  0  0  0  0  0  0  0
    2.0046   -7.5702    0.0000 C   0  0  0  0  0  0  0  0  0  0  0  0
    1.6927   -9.0374    0.0000 C   0  0  0  0  0  0  0  0  0  0  0  0
    0.2662   -9.5009    0.0000 C   0  0  0  0  0  0  0  0  0  0  0  0
   -0.8486   -8.4972    0.0000 C   0  0  0  0  0  0  0  0  0  0  0  0
   -2.2751   -8.9607    0.0000 C   0  0  0  0  0  0  0  0  0  0  0  0
   -3.3899   -7.9570    0.0000 C   0  0  0  0  0  0  0  0  0  0  0  0
   -2.3862   -6.8423    0.0000 C   0  0  0  0  0  0  0  0  0  0  0  0
   -4.3936   -9.0718    0.0000 C   0  0  0  0  0  0  0  0  0  0  0  0
   -4.5046   -6.9534    0.0000 C   0  0  0  0  0  0  0  0  0  0  0  0
   -5.9718   -7.2652    0.0000 C   0  0  0  0  0  0  0  0  0  0  0  0
   -6.7218   -5.9662    0.0000 C   0  0  0  0  0  0  0  0  0  0  0  0
   -5.7181   -4.8515    0.0000 C   0  0  0  0  0  0  0  0  0  0  0  0
   -4.3478   -5.4616    0.0000 C   0  0  0  0  0  0  0  0  0  0  0  0
   -0.5367   -7.0300    0.0000 C   0  0  0  0  0  0  0  0  0  0  0  0
    0.8899   -6.5665    0.0000 C   0  0  0  0  0  0  0  0  0  0  0  0
   -0.1138   -5.4518    0.0000 C   0  0  0  0  0  0  0  0  0  0  0  0
    1.5000   -5.1962    0.0000 C   0  0  0  0  0  0  0  0  0  0  0  0
    0.7500   -3.8971    0.0000 C   0  0  0  0  0  0  0  0  0  0  0  0
    1.5000   -2.5981    0.0000 C   0  0  0  0  0  0  0  0  0  0  0  0
    0.7500   -1.2990    0.0000 C   0  0  0  0  0  0  0  0  0  0  0  0
    1.5000    0.0000    0.0000 C   0  0  0  0  0  0  0  0  0  0  0  0
    0.7500    1.2990    0.0000 C   0  0  0  0  0  0  0  0  0  0  0  0
   -0.7500    1.2990    0.0000 C   0  0  0  0  0  0  0  0  0  0  0  0
   -1.5000    0.0000    0.0000 C   0  0  0  0  0  0  0  0  0  0  0  0
    1.7010   -0.7500    0.0000 C   0  0  0  0  0  0  0  0  0  0  0  0
    3.0000   -0.0000    0.0000 C   0  0  0  0  0  0  0  0  0  0  0  0
    2.2500    1.2990    0.0000 C   0  0  0  0  0  0  0  0  0  0  0  0
    2.2500   -1.2990    0.0000 C   0  0  0  0  0  0  0  0  0  0  0  0
   -0.7500   -1.2990    0.0000 C   0  0  0  0  0  0  0  0  0  0  0  0
  1  2  1  0
  2  3  1  0
  2  4  1  0
  2  5  1  0
  5  6  1  0
  6  7  2  0
  6  8  1  0
  8  9  1  0
  9 10  1  0
 10 11  1  0
 11 12  1  0
 12 13  1  0
 13 14  1  0
 14 15  1  0
 15 16  1  0
 15 17  1  0
 15 18  1  0
 18 19  1  0
 19 20  1  0
 20 21  1  0
 21 22  1  0
 13 23  1  0
 23 24  1  0
 24 25  1  0
 24 26  1  0
 26 27  1  0
 27 28  1  0
 28 29  1  0
 29 30  1  0
 30 31  1  0
 31 32  1  0
 32 33  1  0
 33 34  1  0
 34 35  1  0
 35 36  1  0
 35 37  1  0
 33 38  1  0
 26  8  1  0
 37 29  1  0
 24 10  1  0
 38 29  1  0
 22 18  1  0
 36 31  1  0
M  END
>  <Title>  (50) 
idAABXgen7

$$$$

     RDKit          2D

 38 43  0  0  0  0  0  0  0  0999 V2000
   -0.5344    9.0652    0.0000 C   0  0  0  0  0  0  0  0  0  0  0  0
   -1.7071    8.1299    0.0000 C   0  0  0  0  0  0  0  0  0  0  0  0
   -2.8798    7.1947    0.0000 C   0  0  0  0  0  0  0  0  0  0  0  0
   -2.6423    9.3027    0.0000 C   0  0  0  0  0  0  0  0  0  0  0  0
   -0.7719    6.9572    0.0000 C   0  0  0  0  0  0  0  0  0  0  0  0
   -1.3199    5.5609    0.0000 C   0  0  0  0  0  0  0  0  0  0  0  0
   -2.8031    5.3373    0.0000 O   0  0  0  0  0  0  0  0  0  0  0  0
   -0.3846    4.3881    0.0000 N   0  0  0  0  0  0  0  0  0  0  0  0
    1.0777    4.7219    0.0000 C   0  0  0  0  0  0  0  0  0  0  0  0
    2.2505    3.7867    0.0000 C   0  0  0  0  0  0  0  0  0  0  0  0
    2.2505    2.2867    0.0000 O   0  0  0  0  0  0  0  0  0  0  0  0
    1.0777    1.3515    0.0000 C   0  0  0  0  0  0  0  0  0  0  0  0
    1.7286    0.0000    0.0000 C   0  0  0  0  0  0  0  0  0  0  0  0
    1.0777   -1.3515    0.0000 C   0  0  0  0  0  0  0  0  0  0  0  0
    2.0130   -2.5242    0.0000 C   0  0  0  0  0  0  0  0  0  0  0  0
    3.4962   -2.3006    0.0000 O   0  0  0  0  0  0  0  0  0  0  0  0
    1.4650   -3.9205    0.0000 N   0  0  0  0  0  0  0  0  0  0  0  0
    2.2725   -5.1846    0.0000 C   0  0  0  0  0  0  0  0  0  0  0  0
    1.3198   -6.3432    0.0000 C   0  0  0  0  0  0  0  0  0  0  0  0
   -0.0765   -5.7952    0.0000 C   0  0  0  0  0  0  0  0  0  0  0  0
    0.0132   -4.2979    0.0000 C   0  0  0  0  0  0  0  0  0  0  0  0
   -0.3846   -1.6852    0.0000 C   0  0  0  0  0  0  0  0  0  0  0  0
   -1.5574   -0.7500    0.0000 C   0  0  0  0  0  0  0  0  0  0  0  0
   -1.5574    0.7500    0.0000 C   0  0  0  0  0  0  0  0  0  0  0  0
   -0.3846    1.6852    0.0000 C   0  0  0  0  0  0  0  0  0  0  0  0
   -1.8470    2.0190    0.0000 C   0  0  0  0  0  0  0  0  0  0  0  0
   -1.0355    3.0367    0.0000 C   0  0  0  0  0  0  0  0  0  0  0  0
   -2.5355    3.0367    0.0000 C   0  0  0  0  0  0  0  0  0  0  0  0
   -3.2855    1.7376    0.0000 C   0  0  0  0  0  0  0  0  0  0  0  0
   -4.7855    1.7376    0.0000 C   0  0  0  0  0  0  0  0  0  0  0  0
   -5.5355    0.4386    0.0000 C   0  0  0  0  0  0  0  0  0  0  0  0
   -4.7855   -0.8604    0.0000 C   0  0  0  0  0  0  0  0  0  0  0  0
   -3.2855   -0.8604    0.0000 C   0  0  0  0  0  0  0  0  0  0  0  0
   -4.2364    2.2867    0.0000 C   0  0  0  0  0  0  0  0  0  0  0  0
   -5.5355    3.0367    0.0000 C   0  0  0  0  0  0  0  0  0  0  0  0
   -6.2855    1.7376    0.0000 C   0  0  0  0  0  0  0  0  0  0  0  0
   -4.0355    3.0367    0.0000 C   0  0  0  0  0  0  0  0  0  0  0  0
   -2.5355    0.4386    0.0000 C   0  0  0  0  0  0  0  0  0  0  0  0
  1  2  1  0
  2  3  1  0
  2  4  1  0
  2  5  1  0
  5  6  1  0
  6  7  2  0
  6  8  1  0
  8  9  1  0
  9 10  1  0
 10 11  1  0
 11 12  1  0
 12 13  1  0
 13 14  1  0
 14 15  1  0
 15 16  2  0
 15 17  1  0
 17 18  1  0
 18 19  1  0
 19 20  1  0
 20 21  1  0
 14 22  1  0
 22 23  1  0
 23 24  1  0
 24 25  1  0
 25 26  1  0
 25 27  1  0
 27 28  1  0
 28 29  1  0
 29 30  1  0
 30 31  1  0
 31 32  1  0
 32 33  1  0
 33 34  1  0
 34 35  1  0
 35 36  1  0
 35 37  1  0
 33 38  1  0
 27  8  1  0
 37 29  1  0
 25 12  1  0
 38 29  1  0
 21 17  1  0
 36 31  1  0
M  END
>  <Title>  (51) 
idAABYgen7

$$$$

     RDKit          2D

 33 35  0  0  0  0  0  0  0  0999 V2000
    5.4786   -2.7990    0.0000 C   0  0  0  0  0  0  0  0  0  0  0  0
    5.4786   -1.2990    0.0000 C   0  0  0  0  0  0  0  0  0  0  0  0
    5.4786    0.2010    0.0000 C   0  0  0  0  0  0  0  0  0  0  0  0
    6.9786   -1.2990    0.0000 C   0  0  0  0  0  0  0  0  0  0  0  0
    3.9786   -1.2990    0.0000 O   0  0  0  0  0  0  0  0  0  0  0  0
    3.2286   -0.0000    0.0000 C   0  0  0  0  0  0  0  0  0  0  0  0
    3.9786    1.2990    0.0000 O   0  0  0  0  0  0  0  0  0  0  0  0
    1.7286    0.0000    0.0000 N   0  0  0  0  0  0  0  0  0  0  0  0
    1.0777    1.3515    0.0000 C   0  0  0  0  0  0  0  0  0  0  0  0
   -0.3846    1.6852    0.0000 C   0  0  0  0  0  0  0  0  0  0  0  0
   -1.5574    0.7500    0.0000 O   0  0  0  0  0  0  0  0  0  0  0  0
   -1.5574   -0.7500    0.0000 C   0  0  0  0  0  0  0  0  0  0  0  0
   -2.9537   -1.2980    0.0000 C   0  0  0  0  0  0  0  0  0  0  0  0
   -3.1773   -2.7813    0.0000 C   0  0  0  0  0  0  0  0  0  0  0  0
   -2.0045   -3.7165    0.0000 C   0  0  0  0  0  0  0  0  0  0  0  0
   -2.2281   -5.1997    0.0000 C   0  0  0  0  0  0  0  0  0  0  0  0
   -3.6244   -5.7478    0.0000 C   0  0  0  0  0  0  0  0  0  0  0  0
   -4.7971   -4.8125    0.0000 O   0  0  0  0  0  0  0  0  0  0  0  0
   -3.8480   -7.2310    0.0000 N   0  0  0  0  0  0  0  0  0  0  0  0
   -5.2443   -7.7790    0.0000 C   0  0  0  0  0  0  0  0  0  0  0  0
   -5.4678   -9.2623    0.0000 C   0  0  0  0  0  0  0  0  0  0  0  0
   -6.8641   -9.8103    0.0000 C   0  0  0  0  0  0  0  0  0  0  0  0
   -8.0369   -8.8750    0.0000 C   0  0  0  0  0  0  0  0  0  0  0  0
   -9.4332   -9.4230    0.0000 C   0  0  0  0  0  0  0  0  0  0  0  0
   -9.6568  -10.9063    0.0000 C   0  0  0  0  0  0  0  0  0  0  0  0
   -8.4840  -11.8415    0.0000 C   0  0  0  0  0  0  0  0  0  0  0  0
   -7.0877  -11.2935    0.0000 C   0  0  0  0  0  0  0  0  0  0  0  0
   -6.4170   -6.8438    0.0000 C   0  0  0  0  0  0  0  0  0  0  0  0
   -6.1934   -5.3605    0.0000 O   0  0  0  0  0  0  0  0  0  0  0  0
   -7.8133   -7.3918    0.0000 O   0  0  0  0  0  0  0  0  0  0  0  0
   -0.6082   -3.1685    0.0000 C   0  0  0  0  0  0  0  0  0  0  0  0
   -0.3846   -1.6852    0.0000 C   0  0  0  0  0  0  0  0  0  0  0  0
    1.0777   -1.3515    0.0000 C   0  0  0  0  0  0  0  0  0  0  0  0
  1  2  1  0
  2  3  1  0
  2  4  1  0
  2  5  1  0
  5  6  1  0
  6  7  2  0
  6  8  1  0
  8  9  1  0
  9 10  1  0
 10 11  1  0
 11 12  1  0
 12 13  1  0
 13 14  1  0
 14 15  1  0
 15 16  1  0
 16 17  1  0
 17 18  2  0
 17 19  1  0
 19 20  1  0
 20 21  1  0
 21 22  1  0
 22 23  2  0
 23 24  1  0
 24 25  2  0
 25 26  1  0
 26 27  2  0
 20 28  1  0
 28 29  2  0
 28 30  1  0
 15 31  1  0
 31 32  1  0
 32 33  1  0
 33  8  1  0
 32 12  1  0
 27 22  1  0
M  END
>  <Title>  (52) 
idAABZgen7

$$$$

     RDKit          2D

 37 42  0  0  0  0  0  0  0  0999 V2000
   -0.1459    3.7548    0.0000 O   0  0  0  0  0  0  0  0  0  0  0  0
    0.8578    2.6401    0.0000 C   0  0  0  0  0  0  0  0  0  0  0  0
    2.3250    2.9520    0.0000 N   0  0  0  0  0  0  0  0  0  0  0  0
    2.7886    4.3786    0.0000 C   0  0  0  0  0  0  0  0  0  0  0  0
    4.2558    4.6904    0.0000 C   0  0  0  0  0  0  0  0  0  0  0  0
    4.7193    6.1170    0.0000 C   0  0  0  0  0  0  0  0  0  0  0  0
    4.7193    7.6170    0.0000 C   0  0  0  0  0  0  0  0  0  0  0  0
    3.2927    8.0805    0.0000 C   0  0  0  0  0  0  0  0  0  0  0  0
    2.4111    6.8670    0.0000 C   0  0  0  0  0  0  0  0  0  0  0  0
    1.7849    5.4933    0.0000 C   0  0  0  0  0  0  0  0  0  0  0  0
    3.2927    5.6535    0.0000 N   0  0  0  0  0  0  0  0  0  0  0  0
    2.8292    4.2269    0.0000 C   0  0  0  0  0  0  0  0  0  0  0  0
    3.8329    3.1122    0.0000 C   0  0  0  0  0  0  0  0  0  0  0  0
    3.3694    1.6856    0.0000 C   0  0  0  0  0  0  0  0  0  0  0  0
    1.9022    1.3737    0.0000 C   0  0  0  0  0  0  0  0  0  0  0  0
    1.4386   -0.0528    0.0000 C   0  0  0  0  0  0  0  0  0  0  0  0
    2.4423   -1.1676    0.0000 C   0  0  0  0  0  0  0  0  0  0  0  0
    3.9095   -0.8557    0.0000 C   0  0  0  0  0  0  0  0  0  0  0  0
    4.3731    0.5709    0.0000 C   0  0  0  0  0  0  0  0  0  0  0  0
    0.3943    1.2135    0.0000 C   0  0  0  0  0  0  0  0  0  0  0  0
    1.2760    0.0000    0.0000 C   0  0  0  0  0  0  0  0  0  0  0  0
    0.3943   -1.2135    0.0000 O   0  0  0  0  0  0  0  0  0  0  0  0
   -1.0323   -0.7500    0.0000 C   0  0  0  0  0  0  0  0  0  0  0  0
   -0.8755   -2.2418    0.0000 O   0  0  0  0  0  0  0  0  0  0  0  0
   -2.3313   -1.5000    0.0000 C   0  0  0  0  0  0  0  0  0  0  0  0
   -3.6304   -0.7500    0.0000 C   0  0  0  0  0  0  0  0  0  0  0  0
   -4.9294   -1.5000    0.0000 O   0  0  0  0  0  0  0  0  0  0  0  0
   -3.6304    0.7500    0.0000 C   0  0  0  0  0  0  0  0  0  0  0  0
   -4.9294    1.5000    0.0000 C   0  0  0  0  0  0  0  0  0  0  0  0
   -4.9294    3.0000    0.0000 C   0  0  0  0  0  0  0  0  0  0  0  0
   -3.6304    3.7500    0.0000 C   0  0  0  0  0  0  0  0  0  0  0  0
   -3.6304    5.2500    0.0000 C   0  0  0  0  0  0  0  0  0  0  0  0
   -4.9294    6.0000    0.0000 C   0  0  0  0  0  0  0  0  0  0  0  0
   -6.2284    5.2500    0.0000 C   0  0  0  0  0  0  0  0  0  0  0  0
   -6.2284    3.7500    0.0000 C   0  0  0  0  0  0  0  0  0  0  0  0
   -2.3313    1.5000    0.0000 C   0  0  0  0  0  0  0  0  0  0  0  0
   -1.0323    0.7500    0.0000 C   0  0  0  0  0  0  0  0  0  0  0  0
  1  2  2  0
  2  3  1  0
  3  4  1  0
  4  5  1  0
  5  6  1  0
  6  7  1  0
  7  8  1  0
  8  9  1  0
  9 10  1  0
  9 11  1  0
 11 12  1  0
 12 13  1  0
 13 14  1  0
 14 15  2  0
 15 16  1  0
 16 17  2  0
 17 18  1  0
 18 19  2  0
  2 20  1  0
 20 21  1  0
 21 22  1  0
 22 23  1  0
 23 24  1  0
 23 25  1  0
 25 26  1  0
 26 27  1  0
 26 28  1  0
 28 29  1  0
 29 30  1  0
 30 31  2  0
 31 32  1  0
 32 33  2  0
 33 34  1  0
 34 35  2  0
 28 36  1  0
 36 37  1  0
 10  4  1  0
 19 14  1  0
 37 20  1  0
 11  6  1  0
 37 23  1  0
 35 30  1  0
M  END
>  <Title>  (53) 
idAACAgen7

$$$$

     RDKit          2D

 27 28  0  0  0  0  0  0  0  0999 V2000
    5.2500   -1.2990    0.0000 C   0  0  0  0  0  0  0  0  0  0  0  0
    3.7500   -1.2990    0.0000 O   0  0  0  0  0  0  0  0  0  0  0  0
    3.0000    0.0000    0.0000 C   0  0  0  0  0  0  0  0  0  0  0  0
    3.7500    1.2990    0.0000 O   0  0  0  0  0  0  0  0  0  0  0  0
    1.5000    0.0000    0.0000 C   0  0  0  0  0  0  0  0  0  0  0  0
    0.7500   -1.2990    0.0000 C   0  0  0  0  0  0  0  0  0  0  0  0
   -0.7500   -1.2990    0.0000 C   0  0  0  0  0  0  0  0  0  0  0  0
   -1.5000    0.0000    0.0000 C   0  0  0  0  0  0  0  0  0  0  0  0
   -3.0000    0.0000    0.0000 N   0  0  0  0  0  0  0  0  0  0  0  0
   -3.7500    1.2990    0.0000 C   0  0  0  0  0  0  0  0  0  0  0  0
   -3.0000    2.5981    0.0000 O   0  0  0  0  0  0  0  0  0  0  0  0
   -5.2500    1.2990    0.0000 C   0  0  0  0  0  0  0  0  0  0  0  0
   -6.0000    0.0000    0.0000 O   0  0  0  0  0  0  0  0  0  0  0  0
   -6.0000    2.5981    0.0000 C   0  0  0  0  0  0  0  0  0  0  0  0
   -5.2500    3.8971    0.0000 C   0  0  0  0  0  0  0  0  0  0  0  0
   -6.0000    5.1962    0.0000 C   0  0  0  0  0  0  0  0  0  0  0  0
   -7.5000    5.1962    0.0000 C   0  0  0  0  0  0  0  0  0  0  0  0
   -8.2500    6.4952    0.0000 C   0  0  0  0  0  0  0  0  0  0  0  0
   -9.0000    7.7942    0.0000 F   0  0  0  0  0  0  0  0  0  0  0  0
   -6.9510    7.2452    0.0000 F   0  0  0  0  0  0  0  0  0  0  0  0
   -9.5490    5.7452    0.0000 F   0  0  0  0  0  0  0  0  0  0  0  0
   -8.2500    3.8971    0.0000 C   0  0  0  0  0  0  0  0  0  0  0  0
   -7.5000    2.5981    0.0000 C   0  0  0  0  0  0  0  0  0  0  0  0
   -0.7500    1.2990    0.0000 C   0  0  0  0  0  0  0  0  0  0  0  0
    0.7500    1.2990    0.0000 C   0  0  0  0  0  0  0  0  0  0  0  0
    1.5000    2.5981    0.0000 O   0  0  0  0  0  0  0  0  0  0  0  0
    0.7500    3.8971    0.0000 C   0  0  0  0  0  0  0  0  0  0  0  0
  1  2  1  0
  2  3  1  0
  3  4  2  0
  3  5  1  0
  5  6  2  0
  6  7  1  0
  7  8  2  0
  8  9  1  0
  9 10  1  0
 10 11  2  0
 10 12  1  0
 12 13  1  0
 12 14  1  0
 14 15  2  0
 15 16  1  0
 16 17  2  0
 17 18  1  0
 18 19  1  0
 18 20  1  0
 18 21  1  0
 17 22  1  0
 22 23  2  0
  8 24  1  0
 24 25  2  0
 25 26  1  0
 26 27  1  0
 25  5  1  0
 23 14  1  0
M  END
>  <Title>  (54) 
idAACBgen7

$$$$

     RDKit          2D

 79 85  0  0  0  0  0  0  0  0999 V2000
   -0.5604  -20.2221    0.0000 C   0  0  0  0  0  0  0  0  0  0  0  0
   -2.0276  -19.9102    0.0000 O   0  0  0  0  0  0  0  0  0  0  0  0
   -2.4911  -18.4837    0.0000 C   0  0  0  0  0  0  0  0  0  0  0  0
   -3.9583  -18.1718    0.0000 C   0  0  0  0  0  0  0  0  0  0  0  0
   -4.9620  -19.2865    0.0000 C   0  0  0  0  0  0  0  0  0  0  0  0
   -4.4218  -16.7452    0.0000 N   0  0  0  0  0  0  0  0  0  0  0  0
   -3.4182  -15.6305    0.0000 C   0  0  0  0  0  0  0  0  0  0  0  0
   -1.9509  -15.9424    0.0000 O   0  0  0  0  0  0  0  0  0  0  0  0
   -3.8817  -14.2039    0.0000 C   0  0  0  0  0  0  0  0  0  0  0  0
   -5.3083  -13.7404    0.0000 C   0  0  0  0  0  0  0  0  0  0  0  0
   -5.3083  -12.2404    0.0000 C   0  0  0  0  0  0  0  0  0  0  0  0
   -3.8817  -11.7769    0.0000 C   0  0  0  0  0  0  0  0  0  0  0  0
   -3.0000  -12.9904    0.0000 C   0  0  0  0  0  0  0  0  0  0  0  0
   -1.5000  -12.9904    0.0000 C   0  0  0  0  0  0  0  0  0  0  0  0
   -0.7500  -11.6913    0.0000 O   0  0  0  0  0  0  0  0  0  0  0  0
   -0.7500  -14.2894    0.0000 N   0  0  0  0  0  0  0  0  0  0  0  0
    0.7500  -14.2894    0.0000 C   0  0  0  0  0  0  0  0  0  0  0  0
    1.5000  -15.5885    0.0000 C   0  0  0  0  0  0  0  0  0  0  0  0
    0.7500  -16.8875    0.0000 C   0  0  0  0  0  0  0  0  0  0  0  0
    1.5000  -18.1865    0.0000 C   0  0  0  0  0  0  0  0  0  0  0  0
    0.7500  -19.4856    0.0000 C   0  0  0  0  0  0  0  0  0  0  0  0
   -0.7500  -19.4856    0.0000 C   0  0  0  0  0  0  0  0  0  0  0  0
   -1.5000  -18.1865    0.0000 C   0  0  0  0  0  0  0  0  0  0  0  0
   -0.7500  -16.8875    0.0000 C   0  0  0  0  0  0  0  0  0  0  0  0
    1.5000  -12.9904    0.0000 C   0  0  0  0  0  0  0  0  0  0  0  0
    3.0000  -12.9904    0.0000 O   0  0  0  0  0  0  0  0  0  0  0  0
    0.7500  -11.6913    0.0000 N   0  0  0  0  0  0  0  0  0  0  0  0
    1.5000  -10.3923    0.0000 C   0  0  0  0  0  0  0  0  0  0  0  0
    0.7500   -9.0933    0.0000 C   0  0  0  0  0  0  0  0  0  0  0  0
    1.5000   -7.7942    0.0000 C   0  0  0  0  0  0  0  0  0  0  0  0
    0.7500   -6.4952    0.0000 C   0  0  0  0  0  0  0  0  0  0  0  0
    1.5000   -5.1962    0.0000 C   0  0  0  0  0  0  0  0  0  0  0  0
    3.0000   -5.1962    0.0000 C   0  0  0  0  0  0  0  0  0  0  0  0
    3.7500   -6.4952    0.0000 C   0  0  0  0  0  0  0  0  0  0  0  0
    3.0000   -7.7942    0.0000 C   0  0  0  0  0  0  0  0  0  0  0  0
    3.0000  -10.3923    0.0000 C   0  0  0  0  0  0  0  0  0  0  0  0
    3.7500  -11.6913    0.0000 O   0  0  0  0  0  0  0  0  0  0  0  0
    3.7500   -9.0933    0.0000 N   0  0  0  0  0  0  0  0  0  0  0  0
    5.2500   -9.0933    0.0000 C   0  0  0  0  0  0  0  0  0  0  0  0
    6.0000  -10.3923    0.0000 C   0  0  0  0  0  0  0  0  0  0  0  0
    7.5000  -10.3923    0.0000 C   0  0  0  0  0  0  0  0  0  0  0  0
    8.2500  -11.6913    0.0000 C   0  0  0  0  0  0  0  0  0  0  0  0
    9.7500  -11.6913    0.0000 C   0  0  0  0  0  0  0  0  0  0  0  0
   10.5000  -10.3923    0.0000 C   0  0  0  0  0  0  0  0  0  0  0  0
    9.7500   -9.0933    0.0000 C   0  0  0  0  0  0  0  0  0  0  0  0
    8.2500   -9.0933    0.0000 C   0  0  0  0  0  0  0  0  0  0  0  0
    6.0000   -7.7942    0.0000 C   0  0  0  0  0  0  0  0  0  0  0  0
    5.2500   -6.4952    0.0000 O   0  0  0  0  0  0  0  0  0  0  0  0
    7.5000   -7.7942    0.0000 N   0  0  0  0  0  0  0  0  0  0  0  0
    8.2500   -6.4952    0.0000 C   0  0  0  0  0  0  0  0  0  0  0  0
    9.7500   -6.4952    0.0000 C   0  0  0  0  0  0  0  0  0  0  0  0
   10.5000   -7.7942    0.0000 C   0  0  0  0  0  0  0  0  0  0  0  0
   12.0000   -7.7942    0.0000 C   0  0  0  0  0  0  0  0  0  0  0  0
   12.7500   -9.0933    0.0000 C   0  0  0  0  0  0  0  0  0  0  0  0
   12.0000  -10.3923    0.0000 C   0  0  0  0  0  0  0  0  0  0  0  0
   10.5000  -10.3923    0.0000 C   0  0  0  0  0  0  0  0  0  0  0  0
    9.7500   -9.0933    0.0000 C   0  0  0  0  0  0  0  0  0  0  0  0
    7.5000   -5.1962    0.0000 C   0  0  0  0  0  0  0  0  0  0  0  0
    6.0000   -5.1962    0.0000 O   0  0  0  0  0  0  0  0  0  0  0  0
    8.2500   -3.8971    0.0000 N   0  0  0  0  0  0  0  0  0  0  0  0
    7.5000   -2.5981    0.0000 C   0  0  0  0  0  0  0  0  0  0  0  0
    8.2500   -1.2990    0.0000 C   0  0  0  0  0  0  0  0  0  0  0  0
    9.7500   -1.2990    0.0000 C   0  0  0  0  0  0  0  0  0  0  0  0
   10.5000    0.0000    0.0000 C   0  0  0  0  0  0  0  0  0  0  0  0
   12.0000    0.0000    0.0000 C   0  0  0  0  0  0  0  0  0  0  0  0
   12.7500   -1.2990    0.0000 C   0  0  0  0  0  0  0  0  0  0  0  0
   12.0000   -2.5981    0.0000 C   0  0  0  0  0  0  0  0  0  0  0  0
   10.5000   -2.5981    0.0000 C   0  0  0  0  0  0  0  0  0  0  0  0
    6.0000   -2.5981    0.0000 C   0  0  0  0  0  0  0  0  0  0  0  0
    5.2500   -3.8971    0.0000 O   0  0  0  0  0  0  0  0  0  0  0  0
    5.2500   -1.2990    0.0000 N   0  0  0  0  0  0  0  0  0  0  0  0
    3.7500   -1.2990    0.0000 C   0  0  0  0  0  0  0  0  0  0  0  0
    3.0000   -0.0000    0.0000 C   0  0  0  0  0  0  0  0  0  0  0  0
    3.7500    1.2990    0.0000 C   0  0  0  0  0  0  0  0  0  0  0  0
    3.0000    2.5981    0.0000 C   0  0  0  0  0  0  0  0  0  0  0  0
    3.7500    3.8971    0.0000 C   0  0  0  0  0  0  0  0  0  0  0  0
    5.2500    3.8971    0.0000 C   0  0  0  0  0  0  0  0  0  0  0  0
    6.0000    2.5981    0.0000 C   0  0  0  0  0  0  0  0  0  0  0  0
    5.2500    1.2990    0.0000 C   0  0  0  0  0  0  0  0  0  0  0  0
  1  2  1  0
  2  3  1  0
  3  4  1  0
  4  5  1  0
  4  6  1  0
  6  7  1  0
  7  8  2  0
  7  9  1  0
  9 10  1  0
 10 11  1  0
 11 12  1  0
 12 13  1  0
 13 14  1  0
 14 15  2  0
 14 16  1  0
 16 17  1  0
 17 18  1  0
 18 19  1  0
 19 20  2  0
 20 21  1  0
 21 22  2  0
 22 23  1  0
 23 24  2  0
 17 25  1  0
 25 26  2  0
 25 27  1  0
 27 28  1  0
 28 29  1  0
 29 30  1  0
 30 31  2  0
 31 32  1  0
 32 33  2  0
 33 34  1  0
 34 35  2  0
 28 36  1  0
 36 37  2  0
 36 38  1  0
 38 39  1  0
 39 40  1  0
 40 41  1  0
 41 42  2  0
 42 43  1  0
 43 44  2  0
 44 45  1  0
 45 46  2  0
 39 47  1  0
 47 48  2  0
 47 49  1  0
 49 50  1  0
 50 51  1  0
 51 52  1  0
 52 53  2  0
 53 54  1  0
 54 55  2  0
 55 56  1  0
 56 57  2  0
 50 58  1  0
 58 59  2  0
 58 60  1  0
 60 61  1  0
 61 62  1  0
 62 63  1  0
 63 64  2  0
 64 65  1  0
 65 66  2  0
 66 67  1  0
 67 68  2  0
 61 69  1  0
 69 70  2  0
 69 71  1  0
 71 72  1  0
 72 73  1  0
 73 74  1  0
 74 75  2  0
 75 76  1  0
 76 77  2  0
 77 78  1  0
 78 79  2  0
 13  9  1  0
 24 19  1  0
 35 30  1  0
 46 41  1  0
 57 52  1  0
 68 63  1  0
 79 74  1  0
M  END
>  <Title>  (55) 
idAACCgen7

$$$$

     RDKit          2D

 59 63  0  0  0  0  0  0  0  0999 V2000
   -5.3849    0.4488    0.0000 C   0  0  0  0  0  0  0  0  0  0  0  0
   -3.9583   -0.0147    0.0000 C   0  0  0  0  0  0  0  0  0  0  0  0
   -2.5317   -0.4783    0.0000 C   0  0  0  0  0  0  0  0  0  0  0  0
   -3.4948    1.4118    0.0000 C   0  0  0  0  0  0  0  0  0  0  0  0
   -4.4218   -1.4413    0.0000 N   0  0  0  0  0  0  0  0  0  0  0  0
   -3.4182   -2.5560    0.0000 C   0  0  0  0  0  0  0  0  0  0  0  0
   -1.9509   -2.2442    0.0000 O   0  0  0  0  0  0  0  0  0  0  0  0
   -3.8817   -3.9826    0.0000 C   0  0  0  0  0  0  0  0  0  0  0  0
   -5.3083   -4.4462    0.0000 C   0  0  0  0  0  0  0  0  0  0  0  0
   -5.3083   -5.9462    0.0000 C   0  0  0  0  0  0  0  0  0  0  0  0
   -3.8817   -6.4097    0.0000 C   0  0  0  0  0  0  0  0  0  0  0  0
   -3.0000   -5.1962    0.0000 C   0  0  0  0  0  0  0  0  0  0  0  0
   -1.5000   -5.1962    0.0000 C   0  0  0  0  0  0  0  0  0  0  0  0
   -0.7500   -6.4952    0.0000 O   0  0  0  0  0  0  0  0  0  0  0  0
   -0.7500   -3.8971    0.0000 N   0  0  0  0  0  0  0  0  0  0  0  0
    0.7500   -3.8971    0.0000 C   0  0  0  0  0  0  0  0  0  0  0  0
    1.5000   -2.5981    0.0000 C   0  0  0  0  0  0  0  0  0  0  0  0
    0.7500   -1.2990    0.0000 C   0  0  0  0  0  0  0  0  0  0  0  0
    1.5000    0.0000    0.0000 C   0  0  0  0  0  0  0  0  0  0  0  0
    0.7500    1.2990    0.0000 C   0  0  0  0  0  0  0  0  0  0  0  0
   -0.7500    1.2990    0.0000 C   0  0  0  0  0  0  0  0  0  0  0  0
   -1.5000    0.0000    0.0000 C   0  0  0  0  0  0  0  0  0  0  0  0
   -0.7500   -1.2990    0.0000 C   0  0  0  0  0  0  0  0  0  0  0  0
    1.5000   -5.1962    0.0000 C   0  0  0  0  0  0  0  0  0  0  0  0
    3.0000   -5.1962    0.0000 O   0  0  0  0  0  0  0  0  0  0  0  0
    0.7500   -6.4952    0.0000 N   0  0  0  0  0  0  0  0  0  0  0  0
    1.5000   -7.7942    0.0000 C   0  0  0  0  0  0  0  0  0  0  0  0
    0.7500   -9.0933    0.0000 C   0  0  0  0  0  0  0  0  0  0  0  0
    1.5000  -10.3923    0.0000 C   0  0  0  0  0  0  0  0  0  0  0  0
    0.7500  -11.6913    0.0000 C   0  0  0  0  0  0  0  0  0  0  0  0
    1.5000  -12.9904    0.0000 C   0  0  0  0  0  0  0  0  0  0  0  0
    3.0000  -12.9904    0.0000 C   0  0  0  0  0  0  0  0  0  0  0  0
    3.7500  -11.6913    0.0000 C   0  0  0  0  0  0  0  0  0  0  0  0
    3.0000  -10.3923    0.0000 C   0  0  0  0  0  0  0  0  0  0  0  0
    3.0000   -7.7942    0.0000 C   0  0  0  0  0  0  0  0  0  0  0  0
    3.7500   -6.4952    0.0000 O   0  0  0  0  0  0  0  0  0  0  0  0
    3.7500   -9.0933    0.0000 N   0  0  0  0  0  0  0  0  0  0  0  0
    5.2500   -9.0933    0.0000 C   0  0  0  0  0  0  0  0  0  0  0  0
    6.0000  -10.3923    0.0000 C   0  0  0  0  0  0  0  0  0  0  0  0
    7.5000  -10.3923    0.0000 C   0  0  0  0  0  0  0  0  0  0  0  0
    8.2500  -11.6913    0.0000 C   0  0  0  0  0  0  0  0  0  0  0  0
    9.7500  -11.6913    0.0000 C   0  0  0  0  0  0  0  0  0  0  0  0
   10.5000  -10.3923    0.0000 C   0  0  0  0  0  0  0  0  0  0  0  0
    9.7500   -9.0933    0.0000 C   0  0  0  0  0  0  0  0  0  0  0  0
    8.2500   -9.0933    0.0000 C   0  0  0  0  0  0  0  0  0  0  0  0
    6.0000   -7.7942    0.0000 C   0  0  0  0  0  0  0  0  0  0  0  0
    5.2500   -6.4952    0.0000 O   0  0  0  0  0  0  0  0  0  0  0  0
    7.5000   -7.7942    0.0000 N   0  0  0  0  0  0  0  0  0  0  0  0
    8.2500   -6.4952    0.0000 C   0  0  0  0  0  0  0  0  0  0  0  0
    9.7500   -6.4952    0.0000 C   0  0  0  0  0  0  0  0  0  0  0  0
   10.5000   -5.1962    0.0000 C   0  0  0  0  0  0  0  0  0  0  0  0
   12.0000   -5.1962    0.0000 C   0  0  0  0  0  0  0  0  0  0  0  0
   12.7500   -3.8971    0.0000 C   0  0  0  0  0  0  0  0  0  0  0  0
   12.0000   -2.5981    0.0000 C   0  0  0  0  0  0  0  0  0  0  0  0
   10.5000   -2.5981    0.0000 C   0  0  0  0  0  0  0  0  0  0  0  0
    9.7500   -3.8971    0.0000 C   0  0  0  0  0  0  0  0  0  0  0  0
    7.5000   -5.1962    0.0000 C   0  0  0  0  0  0  0  0  0  0  0  0
    6.0000   -5.1962    0.0000 O   0  0  0  0  0  0  0  0  0  0  0  0
    8.2500   -3.8971    0.0000 O   0  0  0  0  0  0  0  0  0  0  0  0
  1  2  1  0
  2  3  1  0
  2  4  1  0
  2  5  1  0
  5  6  1  0
  6  7  2  0
  6  8  1  0
  8  9  1  0
  9 10  1  0
 10 11  1  0
 11 12  1  0
 12 13  1  0
 13 14  2  0
 13 15  1  0
 15 16  1  0
 16 17  1  0
 17 18  1  0
 18 19  2  0
 19 20  1  0
 20 21  2  0
 21 22  1  0
 22 23  2  0
 16 24  1  0
 24 25  2  0
 24 26  1  0
 26 27  1  0
 27 28  1  0
 28 29  1  0
 29 30  2  0
 30 31  1  0
 31 32  2  0
 32 33  1  0
 33 34  2  0
 27 35  1  0
 35 36  2  0
 35 37  1  0
 37 38  1  0
 38 39  1  0
 39 40  1  0
 40 41  2  0
 41 42  1  0
 42 43  2  0
 43 44  1  0
 44 45  2  0
 38 46  1  0
 46 47  2  0
 46 48  1  0
 48 49  1  0
 49 50  1  0
 50 51  1  0
 51 52  2  0
 52 53  1  0
 53 54  2  0
 54 55  1  0
 55 56  2  0
 49 57  1  0
 57 58  2  0
 57 59  1  0
 12  8  1  0
 23 18  1  0
 34 29  1  0
 45 40  1  0
 56 51  1  0
M  END
>  <Title>  (56) 
idAACDgen7

$$$$

     RDKit          2D

 78 84  0  0  0  0  0  0  0  0999 V2000
   -2.2500    9.0933    0.0000 C   0  0  0  0  0  0  0  0  0  0  0  0
   -3.7500    9.0933    0.0000 C   0  0  0  0  0  0  0  0  0  0  0  0
   -4.5000   10.3923    0.0000 C   0  0  0  0  0  0  0  0  0  0  0  0
   -4.5000    7.7942    0.0000 C   0  0  0  0  0  0  0  0  0  0  0  0
   -3.4580    6.7153    0.0000 O   0  0  0  0  0  0  0  0  0  0  0  0
   -6.0000    7.7942    0.0000 C   0  0  0  0  0  0  0  0  0  0  0  0
   -6.7500    9.0933    0.0000 C   0  0  0  0  0  0  0  0  0  0  0  0
   -6.7500    6.4952    0.0000 C   0  0  0  0  0  0  0  0  0  0  0  0
   -6.0000    5.1962    0.0000 N   0  0  0  0  0  0  0  0  0  0  0  0
   -6.7500    3.8971    0.0000 C   0  0  0  0  0  0  0  0  0  0  0  0
   -6.0000    2.5981    0.0000 C   0  0  0  0  0  0  0  0  0  0  0  0
   -4.5112    2.4152    0.0000 O   0  0  0  0  0  0  0  0  0  0  0  0
   -6.7500    1.2990    0.0000 C   0  0  0  0  0  0  0  0  0  0  0  0
   -8.2500    1.2990    0.0000 C   0  0  0  0  0  0  0  0  0  0  0  0
   -9.0000    2.5981    0.0000 C   0  0  0  0  0  0  0  0  0  0  0  0
   -8.2500    3.8971    0.0000 C   0  0  0  0  0  0  0  0  0  0  0  0
   -9.0000    5.1962    0.0000 C   0  0  0  0  0  0  0  0  0  0  0  0
  -10.5000    5.1962    0.0000 C   0  0  0  0  0  0  0  0  0  0  0  0
  -11.2500    3.8971    0.0000 C   0  0  0  0  0  0  0  0  0  0  0  0
  -10.5000    2.5981    0.0000 C   0  0  0  0  0  0  0  0  0  0  0  0
   -6.0000    0.0000    0.0000 N   0  0  0  0  0  0  0  0  0  0  0  0
   -4.5000    0.0000    0.0000 C   0  0  0  0  0  0  0  0  0  0  0  0
   -4.0866    1.4419    0.0000 O   0  0  0  0  0  0  0  0  0  0  0  0
   -3.7500   -1.2990    0.0000 O   0  0  0  0  0  0  0  0  0  0  0  0
   -2.2500   -1.2990    0.0000 C   0  0  0  0  0  0  0  0  0  0  0  0
   -1.5000   -2.5981    0.0000 C   0  0  0  0  0  0  0  0  0  0  0  0
   -0.0000   -2.5981    0.0000 O   0  0  0  0  0  0  0  0  0  0  0  0
    0.7500   -1.2990    0.0000 C   0  0  0  0  0  0  0  0  0  0  0  0
    1.5000    0.0000    0.0000 O   0  0  0  0  0  0  0  0  0  0  0  0
    0.7500    1.2990    0.0000 C   0  0  0  0  0  0  0  0  0  0  0  0
   -0.7500    1.2990    0.0000 C   0  0  0  0  0  0  0  0  0  0  0  0
   -1.5000    0.0000    0.0000 C   0  0  0  0  0  0  0  0  0  0  0  0
   -0.7500   -1.2990    0.0000 C   0  0  0  0  0  0  0  0  0  0  0  0
   -0.8746   -2.0864    0.0000 O   0  0  0  0  0  0  0  0  0  0  0  0
   -4.5000    5.1962    0.0000 C   0  0  0  0  0  0  0  0  0  0  0  0
   -3.7500    6.4952    0.0000 C   0  0  0  0  0  0  0  0  0  0  0  0
   -2.2500    6.4952    0.0000 C   0  0  0  0  0  0  0  0  0  0  0  0
   -1.5000    5.1962    0.0000 C   0  0  0  0  0  0  0  0  0  0  0  0
   -0.0000    5.1962    0.0000 C   0  0  0  0  0  0  0  0  0  0  0  0
    0.7500    6.4952    0.0000 C   0  0  0  0  0  0  0  0  0  0  0  0
   -0.0000    7.7942    0.0000 C   0  0  0  0  0  0  0  0  0  0  0  0
   -1.5000    7.7942    0.0000 C   0  0  0  0  0  0  0  0  0  0  0  0
   -3.7500    3.8971    0.0000 C   0  0  0  0  0  0  0  0  0  0  0  0
   -4.3361    2.5163    0.0000 O   0  0  0  0  0  0  0  0  0  0  0  0
   -2.2500    3.8971    0.0000 N   0  0  0  0  0  0  0  0  0  0  0  0
   -1.5000    2.5981    0.0000 C   0  0  0  0  0  0  0  0  0  0  0  0
   -0.0000    2.5981    0.0000 C   0  0  0  0  0  0  0  0  0  0  0  0
    0.7500    1.2990    0.0000 C   0  0  0  0  0  0  0  0  0  0  0  0
   -0.0000    0.0000    0.0000 C   0  0  0  0  0  0  0  0  0  0  0  0
    0.7500   -1.2990    0.0000 C   0  0  0  0  0  0  0  0  0  0  0  0
    2.2500   -1.2990    0.0000 C   0  0  0  0  0  0  0  0  0  0  0  0
    3.0000    0.0000    0.0000 C   0  0  0  0  0  0  0  0  0  0  0  0
    2.2500    1.2990    0.0000 C   0  0  0  0  0  0  0  0  0  0  0  0
   -2.2500    1.2990    0.0000 C   0  0  0  0  0  0  0  0  0  0  0  0
   -1.2080    0.2201    0.0000 O   0  0  0  0  0  0  0  0  0  0  0  0
   -3.7500    1.2990    0.0000 N   0  0  0  0  0  0  0  0  0  0  0  0
   -4.5000    0.0000    0.0000 C   0  0  0  0  0  0  0  0  0  0  0  0
   -6.0000    0.0000    0.0000 C   0  0  0  0  0  0  0  0  0  0  0  0
   -6.7500   -1.2990    0.0000 C   0  0  0  0  0  0  0  0  0  0  0  0
   -8.2500   -1.2990    0.0000 C   0  0  0  0  0  0  0  0  0  0  0  0
   -9.0000   -2.5981    0.0000 C   0  0  0  0  0  0  0  0  0  0  0  0
   -8.2500   -3.8971    0.0000 C   0  0  0  0  0  0  0  0  0  0  0  0
   -6.7500   -3.8971    0.0000 C   0  0  0  0  0  0  0  0  0  0  0  0
   -6.0000   -2.5981    0.0000 C   0  0  0  0  0  0  0  0  0  0  0  0
   -3.7500   -1.2990    0.0000 C   0  0  0  0  0  0  0  0  0  0  0  0
   -2.2946   -0.9361    0.0000 O   0  0  0  0  0  0  0  0  0  0  0  0
   -4.5000   -2.5981    0.0000 N   0  0  0  0  0  0  0  0  0  0  0  0
   -3.7500   -3.8971    0.0000 C   0  0  0  0  0  0  0  0  0  0  0  0
   -4.5000   -5.1962    0.0000 C   0  0  0  0  0  0  0  0  0  0  0  0
   -3.7500   -6.4952    0.0000 C   0  0  0  0  0  0  0  0  0  0  0  0
   -4.5000   -7.7942    0.0000 C   0  0  0  0  0  0  0  0  0  0  0  0
   -3.7500   -9.0933    0.0000 C   0  0  0  0  0  0  0  0  0  0  0  0
   -2.2500   -9.0933    0.0000 C   0  0  0  0  0  0  0  0  0  0  0  0
   -1.5000   -7.7942    0.0000 C   0  0  0  0  0  0  0  0  0  0  0  0
   -2.2500   -6.4952    0.0000 C   0  0  0  0  0  0  0  0  0  0  0  0
   -2.2500   -3.8971    0.0000 C   0  0  0  0  0  0  0  0  0  0  0  0
   -1.0842   -2.9532    0.0000 O   0  0  0  0  0  0  0  0  0  0  0  0
   -1.5000   -5.1962    0.0000 O   0  0  0  0  0  0  0  0  0  0  0  0
  1  2  1  0
  2  3  1  0
  2  4  1  0
  4  5  1  0
  4  6  1  0
  6  7  1  0
  6  8  1  0
  8  9  1  0
  9 10  1  0
 10 11  1  0
 11 12  1  0
 11 13  1  0
 13 14  1  0
 14 15  1  0
 15 16  2  0
 16 17  1  0
 17 18  2  0
 18 19  1  0
 19 20  2  0
 13 21  1  0
 21 22  1  0
 22 23  2  0
 22 24  1  0
 24 25  1  0
 25 26  1  0
 26 27  1  0
 27 28  1  0
 28 29  1  0
 29 30  1  0
 30 31  1  0
 31 32  1  0
 32 33  1  0
 33 34  2  0
  9 35  1  0
 35 36  1  0
 36 37  1  0
 37 38  2  0
 38 39  1  0
 39 40  2  0
 40 41  1  0
 41 42  2  0
 35 43  1  0
 43 44  2  0
 43 45  1  0
 45 46  1  0
 46 47  1  0
 47 48  1  0
 48 49  2  0
 49 50  1  0
 50 51  2  0
 51 52  1  0
 52 53  2  0
 46 54  1  0
 54 55  2  0
 54 56  1  0
 56 57  1  0
 57 58  1  0
 58 59  1  0
 59 60  2  0
 60 61  1  0
 61 62  2  0
 62 63  1  0
 63 64  2  0
 57 65  1  0
 65 66  2  0
 65 67  1  0
 67 68  1  0
 68 69  1  0
 69 70  1  0
 70 71  2  0
 71 72  1  0
 72 73  2  0
 73 74  1  0
 74 75  2  0
 68 76  1  0
 76 77  2  0
 76 78  1  0
 20 15  1  0
 32 25  1  0
 42 37  1  0
 53 48  1  0
 64 59  1  0
 75 70  1  0
 33 28  1  0
M  END
>  <Title>  (57) 
idAACEgen7

$$$$

     RDKit          2D

 59 64  0  0  0  0  0  0  0  0999 V2000
   -0.6149   13.1058    0.0000 C   0  0  0  0  0  0  0  0  0  0  0  0
   -1.9140   12.3558    0.0000 C   0  0  0  0  0  0  0  0  0  0  0  0
   -3.2130   11.6058    0.0000 C   0  0  0  0  0  0  0  0  0  0  0  0
   -2.6640   13.6549    0.0000 C   0  0  0  0  0  0  0  0  0  0  0  0
   -1.1640   11.0568    0.0000 C   0  0  0  0  0  0  0  0  0  0  0  0
   -1.9140    9.7578    0.0000 C   0  0  0  0  0  0  0  0  0  0  0  0
   -3.4140    9.7578    0.0000 N   0  0  0  0  0  0  0  0  0  0  0  0
   -4.1640    8.4587    0.0000 C   0  0  0  0  0  0  0  0  0  0  0  0
   -3.4140    7.1597    0.0000 O   0  0  0  0  0  0  0  0  0  0  0  0
   -5.6640    8.4587    0.0000 C   0  0  0  0  0  0  0  0  0  0  0  0
   -6.4140    9.7578    0.0000 C   0  0  0  0  0  0  0  0  0  0  0  0
   -5.6640   11.0568    0.0000 C   0  0  0  0  0  0  0  0  0  0  0  0
   -4.1640   11.0568    0.0000 C   0  0  0  0  0  0  0  0  0  0  0  0
   -3.4140   12.3558    0.0000 C   0  0  0  0  0  0  0  0  0  0  0  0
   -4.1640   13.6549    0.0000 C   0  0  0  0  0  0  0  0  0  0  0  0
   -5.6640   13.6549    0.0000 C   0  0  0  0  0  0  0  0  0  0  0  0
   -6.4140   12.3558    0.0000 C   0  0  0  0  0  0  0  0  0  0  0  0
   -6.4140    7.1597    0.0000 N   0  0  0  0  0  0  0  0  0  0  0  0
   -5.6640    5.8606    0.0000 C   0  0  0  0  0  0  0  0  0  0  0  0
   -4.1640    5.8606    0.0000 O   0  0  0  0  0  0  0  0  0  0  0  0
   -6.4140    4.5616    0.0000 C   0  0  0  0  0  0  0  0  0  0  0  0
   -7.9140    4.5616    0.0000 C   0  0  0  0  0  0  0  0  0  0  0  0
   -8.6640    5.8606    0.0000 C   0  0  0  0  0  0  0  0  0  0  0  0
   -7.9140    7.1597    0.0000 C   0  0  0  0  0  0  0  0  0  0  0  0
   -8.6640    8.4587    0.0000 C   0  0  0  0  0  0  0  0  0  0  0  0
  -10.1640    8.4587    0.0000 C   0  0  0  0  0  0  0  0  0  0  0  0
  -10.9140    7.1597    0.0000 C   0  0  0  0  0  0  0  0  0  0  0  0
  -10.1640    5.8606    0.0000 C   0  0  0  0  0  0  0  0  0  0  0  0
   -5.6640    3.2626    0.0000 N   0  0  0  0  0  0  0  0  0  0  0  0
   -4.1640    3.2626    0.0000 C   0  0  0  0  0  0  0  0  0  0  0  0
   -3.4140    4.5616    0.0000 O   0  0  0  0  0  0  0  0  0  0  0  0
   -3.4140    1.9635    0.0000 O   0  0  0  0  0  0  0  0  0  0  0  0
   -1.9140    1.9635    0.0000 C   0  0  0  0  0  0  0  0  0  0  0  0
   -1.0323    3.1771    0.0000 C   0  0  0  0  0  0  0  0  0  0  0  0
    0.3943    2.7135    0.0000 O   0  0  0  0  0  0  0  0  0  0  0  0
    0.3943    1.2135    0.0000 C   0  0  0  0  0  0  0  0  0  0  0  0
    1.2760    0.0000    0.0000 O   0  0  0  0  0  0  0  0  0  0  0  0
    0.3943   -1.2135    0.0000 O   0  0  0  0  0  0  0  0  0  0  0  0
   -1.0323   -0.7500    0.0000 C   0  0  0  0  0  0  0  0  0  0  0  0
   -1.0323    0.7500    0.0000 C   0  0  0  0  0  0  0  0  0  0  0  0
   -1.1640    8.4587    0.0000 S   0  0  0  0  0  0  0  0  0  0  0  0
   -2.4630    7.7087    0.0000 O   0  0  0  0  0  0  0  0  0  0  0  0
    0.1351    9.2087    0.0000 O   0  0  0  0  0  0  0  0  0  0  0  0
   -0.4140    7.1597    0.0000 C   0  0  0  0  0  0  0  0  0  0  0  0
   -1.1640    5.8606    0.0000 C   0  0  0  0  0  0  0  0  0  0  0  0
   -0.4140    4.5616    0.0000 C   0  0  0  0  0  0  0  0  0  0  0  0
    1.0860    4.5616    0.0000 C   0  0  0  0  0  0  0  0  0  0  0  0
    1.8360    3.2626    0.0000 N   0  0  0  0  0  0  0  0  0  0  0  0
    3.3360    3.2626    0.0000 C   0  0  0  0  0  0  0  0  0  0  0  0
    4.0860    4.5616    0.0000 O   0  0  0  0  0  0  0  0  0  0  0  0
    4.0860    1.9635    0.0000 C   0  0  0  0  0  0  0  0  0  0  0  0
    3.3360    0.6645    0.0000 C   0  0  0  0  0  0  0  0  0  0  0  0
    4.0860   -0.6346    0.0000 C   0  0  0  0  0  0  0  0  0  0  0  0
    5.5860   -0.6346    0.0000 C   0  0  0  0  0  0  0  0  0  0  0  0
    6.3360    0.6645    0.0000 C   0  0  0  0  0  0  0  0  0  0  0  0
    7.8360    0.6645    0.0000 N   0  0  0  0  0  0  0  0  0  0  0  0
    5.5860    1.9635    0.0000 C   0  0  0  0  0  0  0  0  0  0  0  0
    1.8360    5.8606    0.0000 C   0  0  0  0  0  0  0  0  0  0  0  0
    1.0860    7.1597    0.0000 C   0  0  0  0  0  0  0  0  0  0  0  0
  1  2  1  0
  2  3  1  0
  2  4  1  0
  2  5  1  0
  5  6  1  0
  6  7  1  0
  7  8  1  0
  8  9  2  0
  8 10  1  0
 10 11  1  0
 11 12  1  0
 12 13  2  0
 13 14  1  0
 14 15  2  0
 15 16  1  0
 16 17  2  0
 10 18  1  0
 18 19  1  0
 19 20  2  0
 19 21  1  0
 21 22  1  0
 22 23  1  0
 23 24  2  0
 24 25  1  0
 25 26  2  0
 26 27  1  0
 27 28  2  0
 21 29  1  0
 29 30  1  0
 30 31  2  0
 30 32  1  0
 32 33  1  0
 33 34  1  0
 34 35  1  0
 35 36  1  0
 36 37  1  0
 37 38  1  0
 38 39  1  0
 39 40  1  0
  6 41  1  0
 41 42  2  0
 41 43  2  0
 41 44  1  0
 44 45  2  0
 45 46  1  0
 46 47  2  0
 47 48  1  0
 48 49  1  0
 49 50  2  0
 49 51  1  0
 51 52  2  0
 52 53  1  0
 53 54  2  0
 54 55  1  0
 55 56  1  0
 55 57  2  0
 47 58  1  0
 58 59  2  0
 17 12  1  0
 28 23  1  0
 40 33  1  0
 59 44  1  0
 40 36  1  0
 57 51  1  0
M  END
>  <Title>  (58) 
idAACFgen7

$$$$

     RDKit          2D

 30 31  0  0  0  0  0  0  0  0999 V2000
    3.2286   -1.5000    0.0000 C   0  0  0  0  0  0  0  0  0  0  0  0
    3.2286   -0.0000    0.0000 C   0  0  0  0  0  0  0  0  0  0  0  0
    3.2286    1.5000    0.0000 C   0  0  0  0  0  0  0  0  0  0  0  0
    4.7286    0.0000    0.0000 C   0  0  0  0  0  0  0  0  0  0  0  0
    1.7286    0.0000    0.0000 C   0  0  0  0  0  0  0  0  0  0  0  0
    1.0777    1.3515    0.0000 C   0  0  0  0  0  0  0  0  0  0  0  0
   -0.3846    1.6852    0.0000 C   0  0  0  0  0  0  0  0  0  0  0  0
   -1.5574    0.7500    0.0000 C   0  0  0  0  0  0  0  0  0  0  0  0
   -1.5574   -0.7500    0.0000 C   0  0  0  0  0  0  0  0  0  0  0  0
   -0.3846   -1.6852    0.0000 C   0  0  0  0  0  0  0  0  0  0  0  0
   -0.7184   -3.1476    0.0000 C   0  0  0  0  0  0  0  0  0  0  0  0
   -2.1518   -3.5898    0.0000 C   0  0  0  0  0  0  0  0  0  0  0  0
   -2.4856   -5.0522    0.0000 C   0  0  0  0  0  0  0  0  0  0  0  0
   -1.3860   -6.0724    0.0000 C   0  0  0  0  0  0  0  0  0  0  0  0
    0.0474   -5.6303    0.0000 O   0  0  0  0  0  0  0  0  0  0  0  0
   -1.7198   -7.5348    0.0000 O   0  0  0  0  0  0  0  0  0  0  0  0
   -3.2514   -2.5695    0.0000 C   0  0  0  0  0  0  0  0  0  0  0  0
   -2.9176   -1.1071    0.0000 O   0  0  0  0  0  0  0  0  0  0  0  0
   -4.6847   -3.0116    0.0000 C   0  0  0  0  0  0  0  0  0  0  0  0
   -5.0185   -4.4740    0.0000 C   0  0  0  0  0  0  0  0  0  0  0  0
   -6.4519   -4.9162    0.0000 C   0  0  0  0  0  0  0  0  0  0  0  0
   -6.7856   -6.3785    0.0000 C   0  0  0  0  0  0  0  0  0  0  0  0
   -8.2190   -6.8207    0.0000 C   0  0  0  0  0  0  0  0  0  0  0  0
   -9.3186   -5.8004    0.0000 C   0  0  0  0  0  0  0  0  0  0  0  0
   -8.9848   -4.3380    0.0000 C   0  0  0  0  0  0  0  0  0  0  0  0
   -7.5514   -3.8959    0.0000 C   0  0  0  0  0  0  0  0  0  0  0  0
   -5.7843   -1.9914    0.0000 C   0  0  0  0  0  0  0  0  0  0  0  0
   -5.4505   -0.5290    0.0000 O   0  0  0  0  0  0  0  0  0  0  0  0
   -7.2177   -2.4335    0.0000 O   0  0  0  0  0  0  0  0  0  0  0  0
    1.0777   -1.3515    0.0000 C   0  0  0  0  0  0  0  0  0  0  0  0
  1  2  1  0
  2  3  1  0
  2  4  1  0
  2  5  1  0
  5  6  1  0
  6  7  1  0
  7  8  1  0
  8  9  1  0
  9 10  1  0
 10 11  1  0
 11 12  1  0
 12 13  1  0
 13 14  1  0
 14 15  2  0
 14 16  1  0
 12 17  1  0
 17 18  1  0
 17 19  1  0
 19 20  1  0
 20 21  1  0
 21 22  2  0
 22 23  1  0
 23 24  2  0
 24 25  1  0
 25 26  2  0
 19 27  1  0
 27 28  2  0
 27 29  1  0
 10 30  1  0
 30  5  1  0
 26 21  1  0
M  END
>  <Title>  (59) 
idAACGgen7

$$$$

     RDKit          2D

 49 53  0  0  0  0  0  0  0  0999 V2000
   -7.9140   11.2578    0.0000 C   0  0  0  0  0  0  0  0  0  0  0  0
   -7.9140    9.7578    0.0000 C   0  0  0  0  0  0  0  0  0  0  0  0
   -7.9140    8.2578    0.0000 C   0  0  0  0  0  0  0  0  0  0  0  0
   -9.4140    9.7578    0.0000 C   0  0  0  0  0  0  0  0  0  0  0  0
   -6.4140    9.7578    0.0000 C   0  0  0  0  0  0  0  0  0  0  0  0
   -5.6640    8.4587    0.0000 C   0  0  0  0  0  0  0  0  0  0  0  0
   -6.4140    7.1597    0.0000 N   0  0  0  0  0  0  0  0  0  0  0  0
   -5.6640    5.8606    0.0000 C   0  0  0  0  0  0  0  0  0  0  0  0
   -4.1640    5.8606    0.0000 O   0  0  0  0  0  0  0  0  0  0  0  0
   -6.4140    4.5616    0.0000 C   0  0  0  0  0  0  0  0  0  0  0  0
   -7.9140    4.5616    0.0000 C   0  0  0  0  0  0  0  0  0  0  0  0
   -8.6640    5.8606    0.0000 C   0  0  0  0  0  0  0  0  0  0  0  0
   -7.9140    7.1597    0.0000 C   0  0  0  0  0  0  0  0  0  0  0  0
   -8.6640    8.4587    0.0000 C   0  0  0  0  0  0  0  0  0  0  0  0
  -10.1640    8.4587    0.0000 C   0  0  0  0  0  0  0  0  0  0  0  0
  -10.9140    7.1597    0.0000 C   0  0  0  0  0  0  0  0  0  0  0  0
  -10.1640    5.8606    0.0000 C   0  0  0  0  0  0  0  0  0  0  0  0
   -5.6640    3.2626    0.0000 N   0  0  0  0  0  0  0  0  0  0  0  0
   -4.1640    3.2626    0.0000 C   0  0  0  0  0  0  0  0  0  0  0  0
   -3.4140    4.5616    0.0000 O   0  0  0  0  0  0  0  0  0  0  0  0
   -3.4140    1.9635    0.0000 O   0  0  0  0  0  0  0  0  0  0  0  0
   -1.9140    1.9635    0.0000 C   0  0  0  0  0  0  0  0  0  0  0  0
   -1.0323    3.1771    0.0000 C   0  0  0  0  0  0  0  0  0  0  0  0
    0.3943    2.7135    0.0000 O   0  0  0  0  0  0  0  0  0  0  0  0
    0.3943    1.2135    0.0000 C   0  0  0  0  0  0  0  0  0  0  0  0
    1.2760    0.0000    0.0000 O   0  0  0  0  0  0  0  0  0  0  0  0
    0.3943   -1.2135    0.0000 C   0  0  0  0  0  0  0  0  0  0  0  0
   -1.0323   -0.7500    0.0000 C   0  0  0  0  0  0  0  0  0  0  0  0
   -1.0323    0.7500    0.0000 C   0  0  0  0  0  0  0  0  0  0  0  0
   -4.1640    8.4587    0.0000 S   0  0  0  0  0  0  0  0  0  0  0  0
   -4.1640    9.9587    0.0000 O   0  0  0  0  0  0  0  0  0  0  0  0
   -4.1640    6.9587    0.0000 O   0  0  0  0  0  0  0  0  0  0  0  0
   -2.6640    8.4587    0.0000 C   0  0  0  0  0  0  0  0  0  0  0  0
   -1.9140    9.7578    0.0000 C   0  0  0  0  0  0  0  0  0  0  0  0
   -0.4140    9.7578    0.0000 C   0  0  0  0  0  0  0  0  0  0  0  0
    0.3360    8.4587    0.0000 C   0  0  0  0  0  0  0  0  0  0  0  0
    1.8360    8.4587    0.0000 N   0  0  0  0  0  0  0  0  0  0  0  0
    2.5860    9.7578    0.0000 C   0  0  0  0  0  0  0  0  0  0  0  0
    1.8360   11.0568    0.0000 O   0  0  0  0  0  0  0  0  0  0  0  0
    4.0860    9.7578    0.0000 C   0  0  0  0  0  0  0  0  0  0  0  0
    4.6601   11.1436    0.0000 C   0  0  0  0  0  0  0  0  0  0  0  0
    6.0459   11.7176    0.0000 C   0  0  0  0  0  0  0  0  0  0  0  0
    7.4317   11.1436    0.0000 C   0  0  0  0  0  0  0  0  0  0  0  0
    8.0057    9.7578    0.0000 C   0  0  0  0  0  0  0  0  0  0  0  0
    7.4317    8.3719    0.0000 C   0  0  0  0  0  0  0  0  0  0  0  0
    6.0459    7.7979    0.0000 C   0  0  0  0  0  0  0  0  0  0  0  0
    4.6601    8.3719    0.0000 C   0  0  0  0  0  0  0  0  0  0  0  0
   -0.4140    7.1597    0.0000 C   0  0  0  0  0  0  0  0  0  0  0  0
   -1.9140    7.1597    0.0000 C   0  0  0  0  0  0  0  0  0  0  0  0
  1  2  1  0
  2  3  1  0
  2  4  1  0
  2  5  1  0
  5  6  1  0
  6  7  1  0
  7  8  1  0
  8  9  2  0
  8 10  1  0
 10 11  1  0
 11 12  1  0
 12 13  2  0
 13 14  1  0
 14 15  2  0
 15 16  1  0
 16 17  2  0
 10 18  1  0
 18 19  1  0
 19 20  2  0
 19 21  1  0
 21 22  1  0
 22 23  1  0
 23 24  1  0
 24 25  1  0
 25 26  1  0
 26 27  1  0
 27 28  1  0
 28 29  1  0
  6 30  1  0
 30 31  2  0
 30 32  2  0
 30 33  1  0
 33 34  2  0
 34 35  1  0
 35 36  2  0
 36 37  1  0
 37 38  1  0
 38 39  2  0
 38 40  1  0
 40 41  1  0
 41 42  1  0
 42 43  1  0
 43 44  1  0
 44 45  1  0
 45 46  1  0
 46 47  1  0
 36 48  1  0
 48 49  2  0
 17 12  1  0
 29 22  1  0
 49 33  1  0
 29 25  1  0
 47 40  1  0
M  END
>  <Title>  (60) 
idAACHgen7

$$$$

     RDKit          2D

 70 75  0  0  0  0  0  0  0  0999 V2000
   -5.3849    0.4488    0.0000 C   0  0  0  0  0  0  0  0  0  0  0  0
   -3.9583   -0.0147    0.0000 C   0  0  0  0  0  0  0  0  0  0  0  0
   -2.5317   -0.4783    0.0000 C   0  0  0  0  0  0  0  0  0  0  0  0
   -3.4948    1.4118    0.0000 C   0  0  0  0  0  0  0  0  0  0  0  0
   -4.4218   -1.4413    0.0000 N   0  0  0  0  0  0  0  0  0  0  0  0
   -3.4182   -2.5560    0.0000 C   0  0  0  0  0  0  0  0  0  0  0  0
   -1.9509   -2.2442    0.0000 O   0  0  0  0  0  0  0  0  0  0  0  0
   -3.8817   -3.9826    0.0000 C   0  0  0  0  0  0  0  0  0  0  0  0
   -5.3083   -4.4462    0.0000 C   0  0  0  0  0  0  0  0  0  0  0  0
   -5.3083   -5.9462    0.0000 C   0  0  0  0  0  0  0  0  0  0  0  0
   -3.8817   -6.4097    0.0000 C   0  0  0  0  0  0  0  0  0  0  0  0
   -3.0000   -5.1962    0.0000 C   0  0  0  0  0  0  0  0  0  0  0  0
   -1.5000   -5.1962    0.0000 C   0  0  0  0  0  0  0  0  0  0  0  0
   -0.7500   -6.4952    0.0000 O   0  0  0  0  0  0  0  0  0  0  0  0
   -0.7500   -3.8971    0.0000 N   0  0  0  0  0  0  0  0  0  0  0  0
    0.7500   -3.8971    0.0000 C   0  0  0  0  0  0  0  0  0  0  0  0
    1.5000   -2.5981    0.0000 C   0  0  0  0  0  0  0  0  0  0  0  0
    0.7500   -1.2990    0.0000 C   0  0  0  0  0  0  0  0  0  0  0  0
    1.5000    0.0000    0.0000 C   0  0  0  0  0  0  0  0  0  0  0  0
    0.7500    1.2990    0.0000 C   0  0  0  0  0  0  0  0  0  0  0  0
   -0.7500    1.2990    0.0000 C   0  0  0  0  0  0  0  0  0  0  0  0
   -1.5000    0.0000    0.0000 C   0  0  0  0  0  0  0  0  0  0  0  0
   -0.7500   -1.2990    0.0000 C   0  0  0  0  0  0  0  0  0  0  0  0
    1.5000   -5.1962    0.0000 C   0  0  0  0  0  0  0  0  0  0  0  0
    3.0000   -5.1962    0.0000 O   0  0  0  0  0  0  0  0  0  0  0  0
    0.7500   -6.4952    0.0000 N   0  0  0  0  0  0  0  0  0  0  0  0
    1.5000   -7.7942    0.0000 C   0  0  0  0  0  0  0  0  0  0  0  0
    0.7500   -9.0933    0.0000 C   0  0  0  0  0  0  0  0  0  0  0  0
    1.5000  -10.3923    0.0000 C   0  0  0  0  0  0  0  0  0  0  0  0
    0.7500  -11.6913    0.0000 C   0  0  0  0  0  0  0  0  0  0  0  0
    1.5000  -12.9904    0.0000 C   0  0  0  0  0  0  0  0  0  0  0  0
    3.0000  -12.9904    0.0000 C   0  0  0  0  0  0  0  0  0  0  0  0
    3.7500  -11.6913    0.0000 C   0  0  0  0  0  0  0  0  0  0  0  0
    3.0000  -10.3923    0.0000 C   0  0  0  0  0  0  0  0  0  0  0  0
    3.0000   -7.7942    0.0000 C   0  0  0  0  0  0  0  0  0  0  0  0
    3.7500   -6.4952    0.0000 O   0  0  0  0  0  0  0  0  0  0  0  0
    3.7500   -9.0933    0.0000 N   0  0  0  0  0  0  0  0  0  0  0  0
    5.2500   -9.0933    0.0000 C   0  0  0  0  0  0  0  0  0  0  0  0
    6.0000  -10.3923    0.0000 C   0  0  0  0  0  0  0  0  0  0  0  0
    7.5000  -10.3923    0.0000 C   0  0  0  0  0  0  0  0  0  0  0  0
    8.2500  -11.6913    0.0000 C   0  0  0  0  0  0  0  0  0  0  0  0
    9.7500  -11.6913    0.0000 C   0  0  0  0  0  0  0  0  0  0  0  0
   10.5000  -10.3923    0.0000 C   0  0  0  0  0  0  0  0  0  0  0  0
    9.7500   -9.0933    0.0000 C   0  0  0  0  0  0  0  0  0  0  0  0
    8.2500   -9.0933    0.0000 C   0  0  0  0  0  0  0  0  0  0  0  0
    6.0000   -7.7942    0.0000 C   0  0  0  0  0  0  0  0  0  0  0  0
    5.2500   -6.4952    0.0000 O   0  0  0  0  0  0  0  0  0  0  0  0
    7.5000   -7.7942    0.0000 N   0  0  0  0  0  0  0  0  0  0  0  0
    8.2500   -6.4952    0.0000 C   0  0  0  0  0  0  0  0  0  0  0  0
    9.7500   -6.4952    0.0000 C   0  0  0  0  0  0  0  0  0  0  0  0
   10.5000   -5.1962    0.0000 C   0  0  0  0  0  0  0  0  0  0  0  0
   12.0000   -5.1962    0.0000 C   0  0  0  0  0  0  0  0  0  0  0  0
   12.7500   -3.8971    0.0000 C   0  0  0  0  0  0  0  0  0  0  0  0
   12.0000   -2.5981    0.0000 C   0  0  0  0  0  0  0  0  0  0  0  0
   10.5000   -2.5981    0.0000 C   0  0  0  0  0  0  0  0  0  0  0  0
    9.7500   -3.8971    0.0000 C   0  0  0  0  0  0  0  0  0  0  0  0
    7.5000   -5.1962    0.0000 C   0  0  0  0  0  0  0  0  0  0  0  0
    6.0000   -5.1962    0.0000 O   0  0  0  0  0  0  0  0  0  0  0  0
    8.2500   -3.8971    0.0000 N   0  0  0  0  0  0  0  0  0  0  0  0
    7.5000   -2.5981    0.0000 C   0  0  0  0  0  0  0  0  0  0  0  0
    8.2500   -1.2990    0.0000 C   0  0  0  0  0  0  0  0  0  0  0  0
    7.5000   -0.0000    0.0000 C   0  0  0  0  0  0  0  0  0  0  0  0
    8.2500    1.2990    0.0000 C   0  0  0  0  0  0  0  0  0  0  0  0
    7.5000    2.5981    0.0000 C   0  0  0  0  0  0  0  0  0  0  0  0
    6.0000    2.5981    0.0000 C   0  0  0  0  0  0  0  0  0  0  0  0
    5.2500    1.2990    0.0000 C   0  0  0  0  0  0  0  0  0  0  0  0
    6.0000    0.0000    0.0000 C   0  0  0  0  0  0  0  0  0  0  0  0
    6.0000   -2.5981    0.0000 C   0  0  0  0  0  0  0  0  0  0  0  0
    5.2500   -3.8971    0.0000 O   0  0  0  0  0  0  0  0  0  0  0  0
    5.2500   -1.2990    0.0000 O   0  0  0  0  0  0  0  0  0  0  0  0
  1  2  1  0
  2  3  1  0
  2  4  1  0
  2  5  1  0
  5  6  1  0
  6  7  2  0
  6  8  1  0
  8  9  1  0
  9 10  1  0
 10 11  1  0
 11 12  1  0
 12 13  1  0
 13 14  2  0
 13 15  1  0
 15 16  1  0
 16 17  1  0
 17 18  1  0
 18 19  2  0
 19 20  1  0
 20 21  2  0
 21 22  1  0
 22 23  2  0
 16 24  1  0
 24 25  2  0
 24 26  1  0
 26 27  1  0
 27 28  1  0
 28 29  1  0
 29 30  2  0
 30 31  1  0
 31 32  2  0
 32 33  1  0
 33 34  2  0
 27 35  1  0
 35 36  2  0
 35 37  1  0
 37 38  1  0
 38 39  1  0
 39 40  1  0
 40 41  2  0
 41 42  1  0
 42 43  2  0
 43 44  1  0
 44 45  2  0
 38 46  1  0
 46 47  2  0
 46 48  1  0
 48 49  1  0
 49 50  1  0
 50 51  1  0
 51 52  2  0
 52 53  1  0
 53 54  2  0
 54 55  1  0
 55 56  2  0
 49 57  1  0
 57 58  2  0
 57 59  1  0
 59 60  1  0
 60 61  1  0
 61 62  1  0
 62 63  2  0
 63 64  1  0
 64 65  2  0
 65 66  1  0
 66 67  2  0
 60 68  1  0
 68 69  2  0
 68 70  1  0
 12  8  1  0
 23 18  1  0
 34 29  1  0
 45 40  1  0
 56 51  1  0
 67 62  1  0
M  END
>  <Title>  (61) 
idAACIgen7

$$$$

     RDKit          2D

 27 28  0  0  0  0  0  0  0  0999 V2000
    5.2500   -2.7990    0.0000 C   0  0  0  0  0  0  0  0  0  0  0  0
    5.2500   -1.2990    0.0000 C   0  0  0  0  0  0  0  0  0  0  0  0
    5.2500    0.2010    0.0000 C   0  0  0  0  0  0  0  0  0  0  0  0
    6.7500   -1.2990    0.0000 C   0  0  0  0  0  0  0  0  0  0  0  0
    3.7500   -1.2990    0.0000 C   0  0  0  0  0  0  0  0  0  0  0  0
    3.0000    0.0000    0.0000 C   0  0  0  0  0  0  0  0  0  0  0  0
    3.7500    1.2990    0.0000 O   0  0  0  0  0  0  0  0  0  0  0  0
    1.5000    0.0000    0.0000 N   0  0  0  0  0  0  0  0  0  0  0  0
    0.7500   -1.2990    0.0000 C   0  0  0  0  0  0  0  0  0  0  0  0
   -0.7500   -1.2990    0.0000 C   0  0  0  0  0  0  0  0  0  0  0  0
   -1.5000    0.0000    0.0000 C   0  0  0  0  0  0  0  0  0  0  0  0
   -3.0000    0.0000    0.0000 C   0  0  0  0  0  0  0  0  0  0  0  0
   -3.7500   -1.2990    0.0000 O   0  0  0  0  0  0  0  0  0  0  0  0
   -3.7500    1.2990    0.0000 N   0  0  0  0  0  0  0  0  0  0  0  0
   -5.2500    1.2990    0.0000 C   0  0  0  0  0  0  0  0  0  0  0  0
   -6.0000    2.5981    0.0000 C   0  0  0  0  0  0  0  0  0  0  0  0
   -7.5000    2.5981    0.0000 C   0  0  0  0  0  0  0  0  0  0  0  0
   -8.2500    3.8971    0.0000 C   0  0  0  0  0  0  0  0  0  0  0  0
   -9.7500    3.8971    0.0000 C   0  0  0  0  0  0  0  0  0  0  0  0
  -10.5000    2.5981    0.0000 C   0  0  0  0  0  0  0  0  0  0  0  0
   -9.7500    1.2990    0.0000 C   0  0  0  0  0  0  0  0  0  0  0  0
   -8.2500    1.2990    0.0000 C   0  0  0  0  0  0  0  0  0  0  0  0
   -6.0000    0.0000    0.0000 C   0  0  0  0  0  0  0  0  0  0  0  0
   -5.2500   -1.2990    0.0000 O   0  0  0  0  0  0  0  0  0  0  0  0
   -7.5000    0.0000    0.0000 O   0  0  0  0  0  0  0  0  0  0  0  0
   -0.7500    1.2990    0.0000 C   0  0  0  0  0  0  0  0  0  0  0  0
    0.7500    1.2990    0.0000 C   0  0  0  0  0  0  0  0  0  0  0  0
  1  2  1  0
  2  3  1  0
  2  4  1  0
  2  5  1  0
  5  6  1  0
  6  7  2  0
  6  8  1  0
  8  9  1  0
  9 10  1  0
 10 11  1  0
 11 12  1  0
 12 13  2  0
 12 14  1  0
 14 15  1  0
 15 16  1  0
 16 17  1  0
 17 18  2  0
 18 19  1  0
 19 20  2  0
 20 21  1  0
 21 22  2  0
 15 23  1  0
 23 24  2  0
 23 25  1  0
 11 26  1  0
 26 27  1  0
 27  8  1  0
 22 17  1  0
M  END
>  <Title>  (62) 
idAACJgen7

$$$$

     RDKit          2D

 60 64  0  0  0  0  0  0  0  0999 V2000
    5.2500   -2.7990    0.0000 C   0  0  0  0  0  0  0  0  0  0  0  0
    5.2500   -1.2990    0.0000 C   0  0  0  0  0  0  0  0  0  0  0  0
    5.2500    0.2010    0.0000 C   0  0  0  0  0  0  0  0  0  0  0  0
    6.7500   -1.2990    0.0000 C   0  0  0  0  0  0  0  0  0  0  0  0
    3.7500   -1.2990    0.0000 C   0  0  0  0  0  0  0  0  0  0  0  0
    3.0000    0.0000    0.0000 C   0  0  0  0  0  0  0  0  0  0  0  0
    3.7500    1.2990    0.0000 O   0  0  0  0  0  0  0  0  0  0  0  0
    1.5000    0.0000    0.0000 N   0  0  0  0  0  0  0  0  0  0  0  0
    0.7500   -1.2990    0.0000 C   0  0  0  0  0  0  0  0  0  0  0  0
   -0.7500   -1.2990    0.0000 C   0  0  0  0  0  0  0  0  0  0  0  0
   -1.5000    0.0000    0.0000 C   0  0  0  0  0  0  0  0  0  0  0  0
   -0.7500    1.2990    0.0000 C   0  0  0  0  0  0  0  0  0  0  0  0
    0.7500    1.2990    0.0000 C   0  0  0  0  0  0  0  0  0  0  0  0
    1.5000    2.5981    0.0000 C   0  0  0  0  0  0  0  0  0  0  0  0
    0.7500    3.8971    0.0000 O   0  0  0  0  0  0  0  0  0  0  0  0
    3.0000    2.5981    0.0000 N   0  0  0  0  0  0  0  0  0  0  0  0
    3.7500    3.8971    0.0000 C   0  0  0  0  0  0  0  0  0  0  0  0
    5.2500    3.8971    0.0000 C   0  0  0  0  0  0  0  0  0  0  0  0
    6.0000    5.1962    0.0000 C   0  0  0  0  0  0  0  0  0  0  0  0
    7.5000    5.1962    0.0000 C   0  0  0  0  0  0  0  0  0  0  0  0
    8.2500    6.4952    0.0000 C   0  0  0  0  0  0  0  0  0  0  0  0
    7.5000    7.7942    0.0000 C   0  0  0  0  0  0  0  0  0  0  0  0
    6.0000    7.7942    0.0000 C   0  0  0  0  0  0  0  0  0  0  0  0
    5.2500    6.4952    0.0000 C   0  0  0  0  0  0  0  0  0  0  0  0
    3.0000    5.1962    0.0000 C   0  0  0  0  0  0  0  0  0  0  0  0
    1.5000    5.1962    0.0000 O   0  0  0  0  0  0  0  0  0  0  0  0
    3.7500    6.4952    0.0000 N   0  0  0  0  0  0  0  0  0  0  0  0
    3.0000    7.7942    0.0000 C   0  0  0  0  0  0  0  0  0  0  0  0
    3.7500    9.0933    0.0000 C   0  0  0  0  0  0  0  0  0  0  0  0
    3.0000   10.3923    0.0000 C   0  0  0  0  0  0  0  0  0  0  0  0
    3.7500   11.6913    0.0000 C   0  0  0  0  0  0  0  0  0  0  0  0
    3.0000   12.9904    0.0000 C   0  0  0  0  0  0  0  0  0  0  0  0
    1.5000   12.9904    0.0000 C   0  0  0  0  0  0  0  0  0  0  0  0
    0.7500   11.6913    0.0000 C   0  0  0  0  0  0  0  0  0  0  0  0
    1.5000   10.3923    0.0000 C   0  0  0  0  0  0  0  0  0  0  0  0
    1.5000    7.7942    0.0000 C   0  0  0  0  0  0  0  0  0  0  0  0
    0.7500    6.4952    0.0000 O   0  0  0  0  0  0  0  0  0  0  0  0
    0.7500    9.0933    0.0000 N   0  0  0  0  0  0  0  0  0  0  0  0
   -0.7500    9.0933    0.0000 C   0  0  0  0  0  0  0  0  0  0  0  0
   -1.5000   10.3923    0.0000 C   0  0  0  0  0  0  0  0  0  0  0  0
   -3.0000   10.3923    0.0000 C   0  0  0  0  0  0  0  0  0  0  0  0
   -3.7500   11.6913    0.0000 C   0  0  0  0  0  0  0  0  0  0  0  0
   -5.2500   11.6913    0.0000 C   0  0  0  0  0  0  0  0  0  0  0  0
   -6.0000   10.3923    0.0000 C   0  0  0  0  0  0  0  0  0  0  0  0
   -5.2500    9.0933    0.0000 C   0  0  0  0  0  0  0  0  0  0  0  0
   -3.7500    9.0933    0.0000 C   0  0  0  0  0  0  0  0  0  0  0  0
   -1.5000    7.7942    0.0000 C   0  0  0  0  0  0  0  0  0  0  0  0
   -0.7500    6.4952    0.0000 O   0  0  0  0  0  0  0  0  0  0  0  0
   -3.0000    7.7942    0.0000 N   0  0  0  0  0  0  0  0  0  0  0  0
   -3.7500    6.4952    0.0000 C   0  0  0  0  0  0  0  0  0  0  0  0
   -5.2500    6.4952    0.0000 C   0  0  0  0  0  0  0  0  0  0  0  0
   -6.0000    5.1962    0.0000 C   0  0  0  0  0  0  0  0  0  0  0  0
   -7.5000    5.1962    0.0000 C   0  0  0  0  0  0  0  0  0  0  0  0
   -8.2500    3.8971    0.0000 C   0  0  0  0  0  0  0  0  0  0  0  0
   -7.5000    2.5981    0.0000 C   0  0  0  0  0  0  0  0  0  0  0  0
   -6.0000    2.5981    0.0000 C   0  0  0  0  0  0  0  0  0  0  0  0
   -5.2500    3.8971    0.0000 C   0  0  0  0  0  0  0  0  0  0  0  0
   -3.0000    5.1962    0.0000 C   0  0  0  0  0  0  0  0  0  0  0  0
   -1.5000    5.1962    0.0000 O   0  0  0  0  0  0  0  0  0  0  0  0
   -3.7500    3.8971    0.0000 O   0  0  0  0  0  0  0  0  0  0  0  0
  1  2  1  0
  2  3  1  0
  2  4  1  0
  2  5  1  0
  5  6  1  0
  6  7  2  0
  6  8  1  0
  8  9  1  0
  9 10  1  0
 10 11  1  0
 11 12  1  0
 12 13  1  0
 13 14  1  0
 14 15  2  0
 14 16  1  0
 16 17  1  0
 17 18  1  0
 18 19  1  0
 19 20  2  0
 20 21  1  0
 21 22  2  0
 22 23  1  0
 23 24  2  0
 17 25  1  0
 25 26  2  0
 25 27  1  0
 27 28  1  0
 28 29  1  0
 29 30  1  0
 30 31  2  0
 31 32  1  0
 32 33  2  0
 33 34  1  0
 34 35  2  0
 28 36  1  0
 36 37  2  0
 36 38  1  0
 38 39  1  0
 39 40  1  0
 40 41  1  0
 41 42  2  0
 42 43  1  0
 43 44  2  0
 44 45  1  0
 45 46  2  0
 39 47  1  0
 47 48  2  0
 47 49  1  0
 49 50  1  0
 50 51  1  0
 51 52  1  0
 52 53  2  0
 53 54  1  0
 54 55  2  0
 55 56  1  0
 56 57  2  0
 50 58  1  0
 58 59  2  0
 58 60  1  0
 13  8  1  0
 24 19  1  0
 35 30  1  0
 46 41  1  0
 57 52  1  0
M  END
>  <Title>  (63) 
idAACKgen7

$$$$

     RDKit          2D

 26 28  0  0  0  0  0  0  0  0999 V2000
    8.4940    0.2336    0.0000 C   0  0  0  0  0  0  0  0  0  0  0  0
    7.9460    1.6299    0.0000 O   0  0  0  0  0  0  0  0  0  0  0  0
    6.4627    1.8535    0.0000 C   0  0  0  0  0  0  0  0  0  0  0  0
    5.5275    0.6808    0.0000 C   0  0  0  0  0  0  0  0  0  0  0  0
    4.0442    0.9043    0.0000 C   0  0  0  0  0  0  0  0  0  0  0  0
    3.4962    2.3006    0.0000 C   0  0  0  0  0  0  0  0  0  0  0  0
    2.0130    2.5242    0.0000 C   0  0  0  0  0  0  0  0  0  0  0  0
    1.4650    3.9205    0.0000 O   0  0  0  0  0  0  0  0  0  0  0  0
    1.0777    1.3515    0.0000 N   0  0  0  0  0  0  0  0  0  0  0  0
    1.7286    0.0000    0.0000 C   0  0  0  0  0  0  0  0  0  0  0  0
    1.0777   -1.3515    0.0000 C   0  0  0  0  0  0  0  0  0  0  0  0
   -0.3846   -1.6852    0.0000 C   0  0  0  0  0  0  0  0  0  0  0  0
   -1.5574   -0.7500    0.0000 N   0  0  0  0  0  0  0  0  0  0  0  0
   -2.9088   -1.4008    0.0000 C   0  0  0  0  0  0  0  0  0  0  0  0
   -3.0209   -2.8966    0.0000 O   0  0  0  0  0  0  0  0  0  0  0  0
   -4.1482   -0.5558    0.0000 C   0  0  0  0  0  0  0  0  0  0  0  0
   -5.5603   -1.0618    0.0000 C   0  0  0  0  0  0  0  0  0  0  0  0
   -6.4779    0.1248    0.0000 C   0  0  0  0  0  0  0  0  0  0  0  0
   -5.6329    1.3641    0.0000 C   0  0  0  0  0  0  0  0  0  0  0  0
   -4.1931    0.9435    0.0000 O   0  0  0  0  0  0  0  0  0  0  0  0
   -1.5574    0.7500    0.0000 C   0  0  0  0  0  0  0  0  0  0  0  0
   -0.3846    1.6852    0.0000 C   0  0  0  0  0  0  0  0  0  0  0  0
    4.4315    3.4734    0.0000 C   0  0  0  0  0  0  0  0  0  0  0  0
    5.9147    3.2498    0.0000 C   0  0  0  0  0  0  0  0  0  0  0  0
    6.8499    4.4226    0.0000 O   0  0  0  0  0  0  0  0  0  0  0  0
    6.3019    5.8189    0.0000 C   0  0  0  0  0  0  0  0  0  0  0  0
  1  2  1  0
  2  3  1  0
  3  4  2  0
  4  5  1  0
  5  6  2  0
  6  7  1  0
  7  8  2  0
  7  9  1  0
  9 10  1  0
 10 11  1  0
 11 12  1  0
 12 13  1  0
 13 14  1  0
 14 15  2  0
 14 16  1  0
 16 17  2  0
 17 18  1  0
 18 19  2  0
 19 20  1  0
 13 21  1  0
 21 22  1  0
  6 23  1  0
 23 24  2  0
 24 25  1  0
 25 26  1  0
 24  3  1  0
 22  9  1  0
 20 16  1  0
M  END
>  <Title>  (64) 
idAACLgen7

$$$$

     RDKit          2D

 61 69  0  0  0  0  0  0  0  0999 V2000
   -1.2130    7.5021    0.0000 O   0  0  0  0  0  0  0  0  0  0  0  0
   -0.6235    8.8814    0.0000 C   0  0  0  0  0  0  0  0  0  0  0  0
   -1.5232   10.0816    0.0000 O   0  0  0  0  0  0  0  0  0  0  0  0
    0.8658    9.0605    0.0000 C   0  0  0  0  0  0  0  0  0  0  0  0
    1.4553   10.4398    0.0000 C   0  0  0  0  0  0  0  0  0  0  0  0
    0.5556   11.6400    0.0000 C   0  0  0  0  0  0  0  0  0  0  0  0
    1.1451   13.0193    0.0000 C   0  0  0  0  0  0  0  0  0  0  0  0
    0.2454   14.2195    0.0000 C   0  0  0  0  0  0  0  0  0  0  0  0
   -1.2439   14.0404    0.0000 C   0  0  0  0  0  0  0  0  0  0  0  0
   -1.8334   12.6611    0.0000 C   0  0  0  0  0  0  0  0  0  0  0  0
   -0.9337   11.4609    0.0000 C   0  0  0  0  0  0  0  0  0  0  0  0
    1.7655    7.8603    0.0000 N   0  0  0  0  0  0  0  0  0  0  0  0
    1.1760    6.4810    0.0000 C   0  0  0  0  0  0  0  0  0  0  0  0
   -0.3123    6.6676    0.0000 O   0  0  0  0  0  0  0  0  0  0  0  0
    2.0757    5.2808    0.0000 C   0  0  0  0  0  0  0  0  0  0  0  0
    3.5650    5.4599    0.0000 C   0  0  0  0  0  0  0  0  0  0  0  0
    4.1545    6.8392    0.0000 C   0  0  0  0  0  0  0  0  0  0  0  0
    5.6438    7.0183    0.0000 C   0  0  0  0  0  0  0  0  0  0  0  0
    6.2334    8.3976    0.0000 C   0  0  0  0  0  0  0  0  0  0  0  0
    5.3336    9.5978    0.0000 C   0  0  0  0  0  0  0  0  0  0  0  0
    3.8443    9.4187    0.0000 C   0  0  0  0  0  0  0  0  0  0  0  0
    3.2548    8.0394    0.0000 C   0  0  0  0  0  0  0  0  0  0  0  0
    1.4862    3.9015    0.0000 N   0  0  0  0  0  0  0  0  0  0  0  0
   -0.0031    3.7224    0.0000 C   0  0  0  0  0  0  0  0  0  0  0  0
   -0.9028    4.9226    0.0000 O   0  0  0  0  0  0  0  0  0  0  0  0
   -0.5926    2.3431    0.0000 C   0  0  0  0  0  0  0  0  0  0  0  0
    0.3943    1.2135    0.0000 C   0  0  0  0  0  0  0  0  0  0  0  0
    1.2760    0.0000    0.0000 C   0  0  0  0  0  0  0  0  0  0  0  0
    0.3943   -1.2135    0.0000 C   0  0  0  0  0  0  0  0  0  0  0  0
   -1.0323   -0.7500    0.0000 C   0  0  0  0  0  0  0  0  0  0  0  0
   -1.0323    0.7500    0.0000 C   0  0  0  0  0  0  0  0  0  0  0  0
   -2.5737   -0.3836    0.0000 C   0  0  0  0  0  0  0  0  0  0  0  0
   -2.9728    1.0623    0.0000 C   0  0  0  0  0  0  0  0  0  0  0  0
   -2.0911    2.2758    0.0000 C   0  0  0  0  0  0  0  0  0  0  0  0
   -3.5775    2.0745    0.0000 C   0  0  0  0  0  0  0  0  0  0  0  0
   -3.8454    0.5986    0.0000 C   0  0  0  0  0  0  0  0  0  0  0  0
   -5.1968   -0.0522    0.0000 C   0  0  0  0  0  0  0  0  0  0  0  0
   -5.3089   -1.5480    0.0000 O   0  0  0  0  0  0  0  0  0  0  0  0
   -6.4362    0.7927    0.0000 N   0  0  0  0  0  0  0  0  0  0  0  0
   -7.7876    0.1419    0.0000 C   0  0  0  0  0  0  0  0  0  0  0  0
   -9.0270    0.9869    0.0000 C   0  0  0  0  0  0  0  0  0  0  0  0
  -10.3784    0.3361    0.0000 C   0  0  0  0  0  0  0  0  0  0  0  0
  -11.4626   -0.7005    0.0000 C   0  0  0  0  0  0  0  0  0  0  0  0
  -10.8118   -2.0520    0.0000 C   0  0  0  0  0  0  0  0  0  0  0  0
   -9.3254   -1.8506    0.0000 C   0  0  0  0  0  0  0  0  0  0  0  0
   -7.8997   -1.3539    0.0000 C   0  0  0  0  0  0  0  0  0  0  0  0
   -9.0575   -0.3747    0.0000 N   0  0  0  0  0  0  0  0  0  0  0  0
   -7.7061    0.2761    0.0000 C   0  0  0  0  0  0  0  0  0  0  0  0
   -7.5940    1.7719    0.0000 C   0  0  0  0  0  0  0  0  0  0  0  0
   -6.2425    2.4227    0.0000 C   0  0  0  0  0  0  0  0  0  0  0  0
   -5.0032    1.5777    0.0000 C   0  0  0  0  0  0  0  0  0  0  0  0
   -3.6517    2.2286    0.0000 C   0  0  0  0  0  0  0  0  0  0  0  0
   -3.5396    3.7244    0.0000 C   0  0  0  0  0  0  0  0  0  0  0  0
   -2.1882    4.3752    0.0000 C   0  0  0  0  0  0  0  0  0  0  0  0
   -0.9488    3.5302    0.0000 C   0  0  0  0  0  0  0  0  0  0  0  0
    0.4026    4.1811    0.0000 C   0  0  0  0  0  0  0  0  0  0  0  0
    0.5147    5.6769    0.0000 C   0  0  0  0  0  0  0  0  0  0  0  0
   -0.7246    6.5218    0.0000 C   0  0  0  0  0  0  0  0  0  0  0  0
   -2.0761    5.8710    0.0000 N   0  0  0  0  0  0  0  0  0  0  0  0
   -4.7790    4.5694    0.0000 C   0  0  0  0  0  0  0  0  0  0  0  0
   -6.1304    3.9185    0.0000 C   0  0  0  0  0  0  0  0  0  0  0  0
  1  2  2  0
  2  3  1  0
  2  4  1  0
  4  5  1  0
  5  6  1  0
  6  7  2  0
  7  8  1  0
  8  9  2  0
  9 10  1  0
 10 11  2  0
  4 12  1  0
 12 13  1  0
 13 14  2  0
 13 15  1  0
 15 16  1  0
 16 17  1  0
 17 18  2  0
 18 19  1  0
 19 20  2  0
 20 21  1  0
 21 22  2  0
 15 23  1  0
 23 24  1  0
 24 25  2  0
 24 26  1  0
 26 27  1  0
 27 28  1  0
 28 29  1  0
 29 30  1  0
 30 31  1  0
 30 32  1  0
 32 33  1  0
 33 34  1  0
 34 35  1  0
 35 36  1  0
 36 37  1  0
 37 38  2  0
 37 39  1  0
 39 40  1  0
 40 41  1  0
 41 42  1  0
 42 43  1  0
 43 44  1  0
 44 45  1  0
 45 46  1  0
 45 47  1  0
 47 48  1  0
 48 49  1  0
 49 50  1  0
 50 51  2  0
 51 52  1  0
 52 53  2  0
 53 54  1  0
 54 55  2  0
 55 56  1  0
 56 57  2  0
 57 58  1  0
 58 59  2  0
 53 60  1  0
 60 61  2  0
 11  6  1  0
 22 17  1  0
 34 26  1  0
 46 40  1  0
 61 50  1  0
 31 27  1  0
 36 32  1  0
 47 42  1  0
 59 54  1  0
M  END
>  <Title>  (65) 
idAACMgen7

$$$$

     RDKit          2D

 43 49  0  0  0  0  0  0  0  0999 V2000
    4.0442    0.9043    0.0000 O   0  0  0  0  0  0  0  0  0  0  0  0
    3.4962    2.3006    0.0000 C   0  0  0  0  0  0  0  0  0  0  0  0
    4.4315    3.4734    0.0000 N   0  0  0  0  0  0  0  0  0  0  0  0
    5.9147    3.2498    0.0000 C   0  0  0  0  0  0  0  0  0  0  0  0
    6.8499    4.4226    0.0000 C   0  0  0  0  0  0  0  0  0  0  0  0
    8.3332    4.1990    0.0000 C   0  0  0  0  0  0  0  0  0  0  0  0
    9.6748    3.5280    0.0000 C   0  0  0  0  0  0  0  0  0  0  0  0
    9.4512    2.0448    0.0000 C   0  0  0  0  0  0  0  0  0  0  0  0
    7.9715    1.7991    0.0000 C   0  0  0  0  0  0  0  0  0  0  0  0
    6.4627    1.8535    0.0000 C   0  0  0  0  0  0  0  0  0  0  0  0
    7.2805    3.1304    0.0000 N   0  0  0  0  0  0  0  0  0  0  0  0
    5.7972    3.3540    0.0000 C   0  0  0  0  0  0  0  0  0  0  0  0
    5.2492    4.7503    0.0000 C   0  0  0  0  0  0  0  0  0  0  0  0
    3.7660    4.9739    0.0000 C   0  0  0  0  0  0  0  0  0  0  0  0
    3.2180    6.3702    0.0000 C   0  0  0  0  0  0  0  0  0  0  0  0
    1.7347    6.5938    0.0000 C   0  0  0  0  0  0  0  0  0  0  0  0
    0.7995    5.4210    0.0000 C   0  0  0  0  0  0  0  0  0  0  0  0
   -0.6837    5.6446    0.0000 C   0  0  0  0  0  0  0  0  0  0  0  0
   -1.2318    7.0409    0.0000 C   0  0  0  0  0  0  0  0  0  0  0  0
   -2.7150    7.2644    0.0000 C   0  0  0  0  0  0  0  0  0  0  0  0
   -3.6502    6.0917    0.0000 C   0  0  0  0  0  0  0  0  0  0  0  0
   -5.1335    6.3153    0.0000 C   0  0  0  0  0  0  0  0  0  0  0  0
   -5.6815    7.7116    0.0000 C   0  0  0  0  0  0  0  0  0  0  0  0
   -7.1647    7.9351    0.0000 C   0  0  0  0  0  0  0  0  0  0  0  0
   -8.1000    6.7624    0.0000 C   0  0  0  0  0  0  0  0  0  0  0  0
   -7.5520    5.3661    0.0000 C   0  0  0  0  0  0  0  0  0  0  0  0
   -6.0687    5.1425    0.0000 N   0  0  0  0  0  0  0  0  0  0  0  0
   -3.1022    4.6954    0.0000 C   0  0  0  0  0  0  0  0  0  0  0  0
   -1.6190    4.4718    0.0000 C   0  0  0  0  0  0  0  0  0  0  0  0
    1.3475    4.0247    0.0000 C   0  0  0  0  0  0  0  0  0  0  0  0
    2.8308    3.8011    0.0000 C   0  0  0  0  0  0  0  0  0  0  0  0
    2.0130    2.5242    0.0000 O   0  0  0  0  0  0  0  0  0  0  0  0
    1.0777    1.3515    0.0000 C   0  0  0  0  0  0  0  0  0  0  0  0
    1.7286    0.0000    0.0000 C   0  0  0  0  0  0  0  0  0  0  0  0
    1.0777   -1.3515    0.0000 O   0  0  0  0  0  0  0  0  0  0  0  0
   -0.3846   -1.6852    0.0000 C   0  0  0  0  0  0  0  0  0  0  0  0
   -0.7184   -3.1476    0.0000 O   0  0  0  0  0  0  0  0  0  0  0  0
   -1.8711   -1.8866    0.0000 C   0  0  0  0  0  0  0  0  0  0  0  0
   -2.5219   -0.5351    0.0000 C   0  0  0  0  0  0  0  0  0  0  0  0
   -3.9978   -0.2673    0.0000 O   0  0  0  0  0  0  0  0  0  0  0  0
   -1.5574    0.7500    0.0000 C   0  0  0  0  0  0  0  0  0  0  0  0
   -0.3846    1.6852    0.0000 C   0  0  0  0  0  0  0  0  0  0  0  0
   -1.5574   -0.7500    0.0000 C   0  0  0  0  0  0  0  0  0  0  0  0
  1  2  2  0
  2  3  1  0
  3  4  1  0
  4  5  1  0
  5  6  1  0
  6  7  1  0
  7  8  1  0
  8  9  1  0
  9 10  1  0
  9 11  1  0
 11 12  1  0
 12 13  1  0
 13 14  1  0
 14 15  2  0
 15 16  1  0
 16 17  2  0
 17 18  1  0
 18 19  2  0
 19 20  1  0
 20 21  2  0
 21 22  1  0
 22 23  2  0
 23 24  1  0
 24 25  2  0
 25 26  1  0
 26 27  2  0
 21 28  1  0
 28 29  2  0
 17 30  1  0
 30 31  2  0
  2 32  1  0
 32 33  1  0
 33 34  1  0
 34 35  1  0
 35 36  1  0
 36 37  1  0
 36 38  1  0
 38 39  1  0
 39 40  1  0
 39 41  1  0
 41 42  1  0
 41 43  1  0
 10  4  1  0
 31 14  1  0
 42 33  1  0
 11  6  1  0
 29 18  1  0
 43 36  1  0
 27 22  1  0
M  END
>  <Title>  (66) 
idAACNgen7

$$$$

     RDKit          2D

 73 79  0  0  0  0  0  0  0  0999 V2000
   -3.7974    6.2694    0.0000 C   0  0  0  0  0  0  0  0  0  0  0  0
   -4.3593    4.8786    0.0000 C   0  0  0  0  0  0  0  0  0  0  0  0
   -5.5084    3.9145    0.0000 C   0  0  0  0  0  0  0  0  0  0  0  0
   -5.7501    5.4404    0.0000 C   0  0  0  0  0  0  0  0  0  0  0  0
   -3.1458    3.9969    0.0000 N   0  0  0  0  0  0  0  0  0  0  0  0
   -3.3025    2.5051    0.0000 C   0  0  0  0  0  0  0  0  0  0  0  0
   -4.5883    1.7325    0.0000 O   0  0  0  0  0  0  0  0  0  0  0  0
   -2.0890    1.6235    0.0000 C   0  0  0  0  0  0  0  0  0  0  0  0
   -0.7187    2.2336    0.0000 C   0  0  0  0  0  0  0  0  0  0  0  0
    0.3943    1.2135    0.0000 C   0  0  0  0  0  0  0  0  0  0  0  0
    1.2760    0.0000    0.0000 C   0  0  0  0  0  0  0  0  0  0  0  0
    0.3943   -1.2135    0.0000 C   0  0  0  0  0  0  0  0  0  0  0  0
   -1.0323   -0.7500    0.0000 C   0  0  0  0  0  0  0  0  0  0  0  0
   -2.2458    0.1317    0.0000 C   0  0  0  0  0  0  0  0  0  0  0  0
   -1.0323    0.7500    0.0000 C   0  0  0  0  0  0  0  0  0  0  0  0
   -2.2458    1.6317    0.0000 C   0  0  0  0  0  0  0  0  0  0  0  0
   -3.6161    1.0216    0.0000 O   0  0  0  0  0  0  0  0  0  0  0  0
   -2.0890    3.1235    0.0000 N   0  0  0  0  0  0  0  0  0  0  0  0
   -3.3025    4.0051    0.0000 C   0  0  0  0  0  0  0  0  0  0  0  0
   -3.1458    5.4969    0.0000 C   0  0  0  0  0  0  0  0  0  0  0  0
   -4.3593    6.3786    0.0000 C   0  0  0  0  0  0  0  0  0  0  0  0
   -4.2025    7.8704    0.0000 C   0  0  0  0  0  0  0  0  0  0  0  0
   -5.4160    8.7521    0.0000 C   0  0  0  0  0  0  0  0  0  0  0  0
   -6.7863    8.1420    0.0000 C   0  0  0  0  0  0  0  0  0  0  0  0
   -6.9431    6.6502    0.0000 C   0  0  0  0  0  0  0  0  0  0  0  0
   -5.7296    5.7685    0.0000 C   0  0  0  0  0  0  0  0  0  0  0  0
   -4.6729    3.3950    0.0000 C   0  0  0  0  0  0  0  0  0  0  0  0
   -5.0103    1.9335    0.0000 O   0  0  0  0  0  0  0  0  0  0  0  0
   -5.8864    4.2767    0.0000 N   0  0  0  0  0  0  0  0  0  0  0  0
   -7.2567    3.6666    0.0000 C   0  0  0  0  0  0  0  0  0  0  0  0
   -8.4702    4.5483    0.0000 C   0  0  0  0  0  0  0  0  0  0  0  0
   -9.8406    3.9382    0.0000 C   0  0  0  0  0  0  0  0  0  0  0  0
  -11.0541    4.8199    0.0000 C   0  0  0  0  0  0  0  0  0  0  0  0
  -12.4244    4.2098    0.0000 C   0  0  0  0  0  0  0  0  0  0  0  0
  -12.5812    2.7180    0.0000 C   0  0  0  0  0  0  0  0  0  0  0  0
  -11.3677    1.8363    0.0000 C   0  0  0  0  0  0  0  0  0  0  0  0
   -9.9973    2.4464    0.0000 C   0  0  0  0  0  0  0  0  0  0  0  0
   -7.4135    2.1748    0.0000 C   0  0  0  0  0  0  0  0  0  0  0  0
   -6.2000    1.2931    0.0000 O   0  0  0  0  0  0  0  0  0  0  0  0
   -8.7838    1.5647    0.0000 N   0  0  0  0  0  0  0  0  0  0  0  0
   -8.9406    0.0729    0.0000 C   0  0  0  0  0  0  0  0  0  0  0  0
  -10.3109   -0.5372    0.0000 C   0  0  0  0  0  0  0  0  0  0  0  0
  -10.4677   -2.0290    0.0000 C   0  0  0  0  0  0  0  0  0  0  0  0
  -11.8380   -2.6391    0.0000 C   0  0  0  0  0  0  0  0  0  0  0  0
  -11.9948   -4.1308    0.0000 C   0  0  0  0  0  0  0  0  0  0  0  0
  -10.7813   -5.0125    0.0000 C   0  0  0  0  0  0  0  0  0  0  0  0
   -9.4110   -4.4024    0.0000 C   0  0  0  0  0  0  0  0  0  0  0  0
   -9.2542   -2.9106    0.0000 C   0  0  0  0  0  0  0  0  0  0  0  0
   -7.7271   -0.8087    0.0000 C   0  0  0  0  0  0  0  0  0  0  0  0
   -6.3568   -0.1986    0.0000 O   0  0  0  0  0  0  0  0  0  0  0  0
   -7.8839   -2.3005    0.0000 N   0  0  0  0  0  0  0  0  0  0  0  0
   -6.6704   -3.1822    0.0000 C   0  0  0  0  0  0  0  0  0  0  0  0
   -6.8271   -4.6740    0.0000 C   0  0  0  0  0  0  0  0  0  0  0  0
   -5.6136   -5.5557    0.0000 C   0  0  0  0  0  0  0  0  0  0  0  0
   -5.7704   -7.0474    0.0000 C   0  0  0  0  0  0  0  0  0  0  0  0
   -4.5569   -7.9291    0.0000 C   0  0  0  0  0  0  0  0  0  0  0  0
   -3.1866   -7.3190    0.0000 C   0  0  0  0  0  0  0  0  0  0  0  0
   -3.0298   -5.8272    0.0000 C   0  0  0  0  0  0  0  0  0  0  0  0
   -4.2433   -4.9456    0.0000 C   0  0  0  0  0  0  0  0  0  0  0  0
   -5.3000   -2.5721    0.0000 C   0  0  0  0  0  0  0  0  0  0  0  0
   -5.1432   -1.0803    0.0000 O   0  0  0  0  0  0  0  0  0  0  0  0
   -4.0865   -3.4538    0.0000 N   0  0  0  0  0  0  0  0  0  0  0  0
   -2.7162   -2.8437    0.0000 C   0  0  0  0  0  0  0  0  0  0  0  0
   -1.5027   -3.7253    0.0000 C   0  0  0  0  0  0  0  0  0  0  0  0
   -0.1323   -3.1152    0.0000 C   0  0  0  0  0  0  0  0  0  0  0  0
    1.0812   -3.9969    0.0000 C   0  0  0  0  0  0  0  0  0  0  0  0
    2.4515   -3.3868    0.0000 C   0  0  0  0  0  0  0  0  0  0  0  0
    2.6083   -1.8950    0.0000 C   0  0  0  0  0  0  0  0  0  0  0  0
    1.3948   -1.0134    0.0000 C   0  0  0  0  0  0  0  0  0  0  0  0
    0.0244   -1.6235    0.0000 C   0  0  0  0  0  0  0  0  0  0  0  0
   -2.5594   -1.3519    0.0000 C   0  0  0  0  0  0  0  0  0  0  0  0
   -3.7729   -0.4702    0.0000 O   0  0  0  0  0  0  0  0  0  0  0  0
   -1.0822   -1.0915    0.0000 O   0  0  0  0  0  0  0  0  0  0  0  0
  1  2  1  0
  2  3  1  0
  2  4  1  0
  2  5  1  0
  5  6  1  0
  6  7  2  0
  6  8  1  0
  8  9  1  0
  9 10  1  0
 10 11  1  0
 11 12  1  0
 12 13  1  0
 13 14  1  0
 13 15  1  0
 15 16  1  0
 16 17  2  0
 16 18  1  0
 18 19  1  0
 19 20  1  0
 20 21  1  0
 21 22  2  0
 22 23  1  0
 23 24  2  0
 24 25  1  0
 25 26  2  0
 19 27  1  0
 27 28  2  0
 27 29  1  0
 29 30  1  0
 30 31  1  0
 31 32  1  0
 32 33  2  0
 33 34  1  0
 34 35  2  0
 35 36  1  0
 36 37  2  0
 30 38  1  0
 38 39  2  0
 38 40  1  0
 40 41  1  0
 41 42  1  0
 42 43  1  0
 43 44  2  0
 44 45  1  0
 45 46  2  0
 46 47  1  0
 47 48  2  0
 41 49  1  0
 49 50  2  0
 49 51  1  0
 51 52  1  0
 52 53  1  0
 53 54  1  0
 54 55  2  0
 55 56  1  0
 56 57  2  0
 57 58  1  0
 58 59  2  0
 52 60  1  0
 60 61  2  0
 60 62  1  0
 62 63  1  0
 63 64  1  0
 64 65  1  0
 65 66  2  0
 66 67  1  0
 67 68  2  0
 68 69  1  0
 69 70  2  0
 63 71  1  0
 71 72  2  0
 71 73  1  0
 14  8  1  0
 26 21  1  0
 37 32  1  0
 48 43  1  0
 59 54  1  0
 70 65  1  0
 15 10  1  0
M  END
>  <Title>  (67) 
idAACOgen7

$$$$

     RDKit          2D

 64 69  0  0  0  0  0  0  0  0999 V2000
   -5.0984    5.7571    0.0000 C   0  0  0  0  0  0  0  0  0  0  0  0
   -3.7177    6.3433    0.0000 C   0  0  0  0  0  0  0  0  0  0  0  0
   -2.2361    6.5779    0.0000 C   0  0  0  0  0  0  0  0  0  0  0  0
   -3.5869    7.8376    0.0000 C   0  0  0  0  0  0  0  0  0  0  0  0
   -3.4830    4.8617    0.0000 C   0  0  0  0  0  0  0  0  0  0  0  0
   -2.0827    4.3242    0.0000 C   0  0  0  0  0  0  0  0  0  0  0  0
   -0.9169    5.2682    0.0000 O   0  0  0  0  0  0  0  0  0  0  0  0
   -1.8480    2.8427    0.0000 N   0  0  0  0  0  0  0  0  0  0  0  0
   -3.1270    2.0589    0.0000 C   0  0  0  0  0  0  0  0  0  0  0  0
   -3.4771    0.6004    0.0000 C   0  0  0  0  0  0  0  0  0  0  0  0
   -2.6934   -0.6786    0.0000 O   0  0  0  0  0  0  0  0  0  0  0  0
   -1.0323   -0.7500    0.0000 C   0  0  0  0  0  0  0  0  0  0  0  0
    0.3943   -1.2135    0.0000 C   0  0  0  0  0  0  0  0  0  0  0  0
    1.2760    0.0000    0.0000 C   0  0  0  0  0  0  0  0  0  0  0  0
    0.3943    1.2135    0.0000 C   0  0  0  0  0  0  0  0  0  0  0  0
   -0.3894    2.4925    0.0000 C   0  0  0  0  0  0  0  0  0  0  0  0
   -1.0323    0.7500    0.0000 C   0  0  0  0  0  0  0  0  0  0  0  0
   -2.2458    1.6317    0.0000 C   0  0  0  0  0  0  0  0  0  0  0  0
   -3.7230    1.3713    0.0000 O   0  0  0  0  0  0  0  0  0  0  0  0
   -2.0890    3.1235    0.0000 N   0  0  0  0  0  0  0  0  0  0  0  0
   -3.3025    4.0051    0.0000 C   0  0  0  0  0  0  0  0  0  0  0  0
   -3.1458    5.4969    0.0000 C   0  0  0  0  0  0  0  0  0  0  0  0
   -4.3593    6.3786    0.0000 C   0  0  0  0  0  0  0  0  0  0  0  0
   -4.2025    7.8704    0.0000 C   0  0  0  0  0  0  0  0  0  0  0  0
   -5.4160    8.7521    0.0000 C   0  0  0  0  0  0  0  0  0  0  0  0
   -6.7863    8.1420    0.0000 C   0  0  0  0  0  0  0  0  0  0  0  0
   -6.9431    6.6502    0.0000 C   0  0  0  0  0  0  0  0  0  0  0  0
   -5.7296    5.7685    0.0000 C   0  0  0  0  0  0  0  0  0  0  0  0
   -4.6729    3.3950    0.0000 C   0  0  0  0  0  0  0  0  0  0  0  0
   -4.8297    1.9033    0.0000 O   0  0  0  0  0  0  0  0  0  0  0  0
   -5.8864    4.2767    0.0000 N   0  0  0  0  0  0  0  0  0  0  0  0
   -7.2567    3.6666    0.0000 C   0  0  0  0  0  0  0  0  0  0  0  0
   -8.4702    4.5483    0.0000 C   0  0  0  0  0  0  0  0  0  0  0  0
   -9.8406    3.9382    0.0000 C   0  0  0  0  0  0  0  0  0  0  0  0
  -11.0541    4.8199    0.0000 C   0  0  0  0  0  0  0  0  0  0  0  0
  -12.4244    4.2098    0.0000 C   0  0  0  0  0  0  0  0  0  0  0  0
  -12.5812    2.7180    0.0000 C   0  0  0  0  0  0  0  0  0  0  0  0
  -11.3677    1.8363    0.0000 C   0  0  0  0  0  0  0  0  0  0  0  0
   -9.9973    2.4464    0.0000 C   0  0  0  0  0  0  0  0  0  0  0  0
   -7.4135    2.1748    0.0000 C   0  0  0  0  0  0  0  0  0  0  0  0
   -6.2000    1.2931    0.0000 O   0  0  0  0  0  0  0  0  0  0  0  0
   -8.7838    1.5647    0.0000 N   0  0  0  0  0  0  0  0  0  0  0  0
   -8.9406    0.0729    0.0000 C   0  0  0  0  0  0  0  0  0  0  0  0
  -10.3109   -0.5372    0.0000 C   0  0  0  0  0  0  0  0  0  0  0  0
  -10.4677   -2.0290    0.0000 C   0  0  0  0  0  0  0  0  0  0  0  0
  -11.8380   -2.6391    0.0000 C   0  0  0  0  0  0  0  0  0  0  0  0
  -11.9948   -4.1308    0.0000 C   0  0  0  0  0  0  0  0  0  0  0  0
  -10.7813   -5.0125    0.0000 C   0  0  0  0  0  0  0  0  0  0  0  0
   -9.4110   -4.4024    0.0000 C   0  0  0  0  0  0  0  0  0  0  0  0
   -9.2542   -2.9106    0.0000 C   0  0  0  0  0  0  0  0  0  0  0  0
   -7.7271   -0.8087    0.0000 C   0  0  0  0  0  0  0  0  0  0  0  0
   -6.3568   -0.1986    0.0000 O   0  0  0  0  0  0  0  0  0  0  0  0
   -7.8839   -2.3005    0.0000 N   0  0  0  0  0  0  0  0  0  0  0  0
   -6.6704   -3.1822    0.0000 C   0  0  0  0  0  0  0  0  0  0  0  0
   -6.8271   -4.6740    0.0000 C   0  0  0  0  0  0  0  0  0  0  0  0
   -5.6136   -5.5557    0.0000 C   0  0  0  0  0  0  0  0  0  0  0  0
   -5.7704   -7.0474    0.0000 C   0  0  0  0  0  0  0  0  0  0  0  0
   -4.5569   -7.9291    0.0000 C   0  0  0  0  0  0  0  0  0  0  0  0
   -3.1866   -7.3190    0.0000 C   0  0  0  0  0  0  0  0  0  0  0  0
   -3.0298   -5.8272    0.0000 C   0  0  0  0  0  0  0  0  0  0  0  0
   -4.2433   -4.9456    0.0000 C   0  0  0  0  0  0  0  0  0  0  0  0
   -5.3000   -2.5721    0.0000 C   0  0  0  0  0  0  0  0  0  0  0  0
   -5.1432   -1.0803    0.0000 O   0  0  0  0  0  0  0  0  0  0  0  0
   -4.0865   -3.4538    0.0000 O   0  0  0  0  0  0  0  0  0  0  0  0
  1  2  1  0
  2  3  1  0
  2  4  1  0
  2  5  1  0
  5  6  1  0
  6  7  2  0
  6  8  1  0
  8  9  1  0
  9 10  1  0
 10 11  1  0
 11 12  1  0
 12 13  1  0
 13 14  1  0
 14 15  1  0
 15 16  1  0
 15 17  1  0
 17 18  1  0
 18 19  2  0
 18 20  1  0
 20 21  1  0
 21 22  1  0
 22 23  1  0
 23 24  2  0
 24 25  1  0
 25 26  2  0
 26 27  1  0
 27 28  2  0
 21 29  1  0
 29 30  2  0
 29 31  1  0
 31 32  1  0
 32 33  1  0
 33 34  1  0
 34 35  2  0
 35 36  1  0
 36 37  2  0
 37 38  1  0
 38 39  2  0
 32 40  1  0
 40 41  2  0
 40 42  1  0
 42 43  1  0
 43 44  1  0
 44 45  1  0
 45 46  2  0
 46 47  1  0
 47 48  2  0
 48 49  1  0
 49 50  2  0
 43 51  1  0
 51 52  2  0
 51 53  1  0
 53 54  1  0
 54 55  1  0
 55 56  1  0
 56 57  2  0
 57 58  1  0
 58 59  2  0
 59 60  1  0
 60 61  2  0
 54 62  1  0
 62 63  2  0
 62 64  1  0
 16  8  1  0
 28 23  1  0
 39 34  1  0
 50 45  1  0
 61 56  1  0
 17 12  1  0
M  END
>  <Title>  (68) 
idAACPgen7

$$$$

     RDKit          2D

 26 27  0  0  0  0  0  0  0  0999 V2000
    5.2500   -2.7990    0.0000 C   0  0  0  0  0  0  0  0  0  0  0  0
    5.2500   -1.2990    0.0000 C   0  0  0  0  0  0  0  0  0  0  0  0
    5.2500    0.2010    0.0000 C   0  0  0  0  0  0  0  0  0  0  0  0
    6.7500   -1.2990    0.0000 C   0  0  0  0  0  0  0  0  0  0  0  0
    3.7500   -1.2990    0.0000 O   0  0  0  0  0  0  0  0  0  0  0  0
    3.0000    0.0000    0.0000 C   0  0  0  0  0  0  0  0  0  0  0  0
    3.7500    1.2990    0.0000 O   0  0  0  0  0  0  0  0  0  0  0  0
    1.5000    0.0000    0.0000 N   0  0  0  0  0  0  0  0  0  0  0  0
    0.7500   -1.2990    0.0000 C   0  0  0  0  0  0  0  0  0  0  0  0
   -0.7500   -1.2990    0.0000 C   0  0  0  0  0  0  0  0  0  0  0  0
   -1.5000    0.0000    0.0000 N   0  0  0  0  0  0  0  0  0  0  0  0
   -3.0000    0.0000    0.0000 C   0  0  0  0  0  0  0  0  0  0  0  0
   -3.7500   -1.2990    0.0000 O   0  0  0  0  0  0  0  0  0  0  0  0
   -3.7500    1.2990    0.0000 C   0  0  0  0  0  0  0  0  0  0  0  0
   -5.2500    1.2990    0.0000 C   0  0  0  0  0  0  0  0  0  0  0  0
   -6.0000    2.5981    0.0000 C   0  0  0  0  0  0  0  0  0  0  0  0
   -7.5000    2.5981    0.0000 C   0  0  0  0  0  0  0  0  0  0  0  0
   -8.2500    1.2990    0.0000 O   0  0  0  0  0  0  0  0  0  0  0  0
   -8.2500    3.8971    0.0000 C   0  0  0  0  0  0  0  0  0  0  0  0
   -7.5000    5.1962    0.0000 C   0  0  0  0  0  0  0  0  0  0  0  0
   -8.2500    6.4952    0.0000 C   0  0  0  0  0  0  0  0  0  0  0  0
   -9.7500    6.4952    0.0000 C   0  0  0  0  0  0  0  0  0  0  0  0
  -10.5000    5.1962    0.0000 C   0  0  0  0  0  0  0  0  0  0  0  0
   -9.7500    3.8971    0.0000 C   0  0  0  0  0  0  0  0  0  0  0  0
   -0.7500    1.2990    0.0000 C   0  0  0  0  0  0  0  0  0  0  0  0
    0.7500    1.2990    0.0000 C   0  0  0  0  0  0  0  0  0  0  0  0
  1  2  1  0
  2  3  1  0
  2  4  1  0
  2  5  1  0
  5  6  1  0
  6  7  2  0
  6  8  1  0
  8  9  1  0
  9 10  1  0
 10 11  1  0
 11 12  1  0
 12 13  2  0
 12 14  1  0
 14 15  1  0
 15 16  1  0
 16 17  1  0
 17 18  2  0
 17 19  1  0
 19 20  2  0
 20 21  1  0
 21 22  2  0
 22 23  1  0
 23 24  2  0
 11 25  1  0
 25 26  1  0
 26  8  1  0
 24 19  1  0
M  END
>  <Title>  (69) 
idAACQgen7

$$$$

     RDKit          2D

 39 42  0  0  0  0  0  0  0  0999 V2000
    5.2500   -2.7990    0.0000 C   0  0  0  0  0  0  0  0  0  0  0  0
    5.2500   -1.2990    0.0000 C   0  0  0  0  0  0  0  0  0  0  0  0
    5.2500    0.2010    0.0000 C   0  0  0  0  0  0  0  0  0  0  0  0
    6.7500   -1.2990    0.0000 C   0  0  0  0  0  0  0  0  0  0  0  0
    3.7500   -1.2990    0.0000 C   0  0  0  0  0  0  0  0  0  0  0  0
    3.0000    0.0000    0.0000 C   0  0  0  0  0  0  0  0  0  0  0  0
    3.7500    1.2990    0.0000 O   0  0  0  0  0  0  0  0  0  0  0  0
    1.5000    0.0000    0.0000 N   0  0  0  0  0  0  0  0  0  0  0  0
    0.7500   -1.2990    0.0000 C   0  0  0  0  0  0  0  0  0  0  0  0
   -0.7500   -1.2990    0.0000 C   0  0  0  0  0  0  0  0  0  0  0  0
   -1.5000    0.0000    0.0000 N   0  0  0  0  0  0  0  0  0  0  0  0
   -3.0000    0.0000    0.0000 C   0  0  0  0  0  0  0  0  0  0  0  0
   -3.7500   -1.2990    0.0000 O   0  0  0  0  0  0  0  0  0  0  0  0
   -3.7500    1.2990    0.0000 C   0  0  0  0  0  0  0  0  0  0  0  0
   -5.2500    1.2990    0.0000 C   0  0  0  0  0  0  0  0  0  0  0  0
   -6.0000    0.0000    0.0000 C   0  0  0  0  0  0  0  0  0  0  0  0
   -5.2500   -1.2990    0.0000 C   0  0  0  0  0  0  0  0  0  0  0  0
   -6.0000   -2.5981    0.0000 C   0  0  0  0  0  0  0  0  0  0  0  0
   -7.5000   -2.5981    0.0000 C   0  0  0  0  0  0  0  0  0  0  0  0
   -8.2500   -1.2990    0.0000 C   0  0  0  0  0  0  0  0  0  0  0  0
   -7.5000   -0.0000    0.0000 C   0  0  0  0  0  0  0  0  0  0  0  0
   -3.0000    2.5981    0.0000 N   0  0  0  0  0  0  0  0  0  0  0  0
   -3.7500    3.8971    0.0000 C   0  0  0  0  0  0  0  0  0  0  0  0
   -5.2500    3.8971    0.0000 O   0  0  0  0  0  0  0  0  0  0  0  0
   -3.0000    5.1962    0.0000 C   0  0  0  0  0  0  0  0  0  0  0  0
   -1.5000    5.1962    0.0000 C   0  0  0  0  0  0  0  0  0  0  0  0
   -0.7500    6.4952    0.0000 C   0  0  0  0  0  0  0  0  0  0  0  0
   -1.5000    7.7942    0.0000 C   0  0  0  0  0  0  0  0  0  0  0  0
   -0.7500    9.0933    0.0000 C   0  0  0  0  0  0  0  0  0  0  0  0
   -1.5000   10.3923    0.0000 O   0  0  0  0  0  0  0  0  0  0  0  0
    0.7500    9.0933    0.0000 N   0  0  0  0  0  0  0  0  0  0  0  0
    1.6317   10.3068    0.0000 C   0  0  0  0  0  0  0  0  0  0  0  0
    3.0583    9.8433    0.0000 C   0  0  0  0  0  0  0  0  0  0  0  0
    3.0583    8.3433    0.0000 C   0  0  0  0  0  0  0  0  0  0  0  0
    1.6317    7.8797    0.0000 C   0  0  0  0  0  0  0  0  0  0  0  0
   -3.0000    7.7942    0.0000 C   0  0  0  0  0  0  0  0  0  0  0  0
   -3.7500    6.4952    0.0000 C   0  0  0  0  0  0  0  0  0  0  0  0
   -0.7500    1.2990    0.0000 C   0  0  0  0  0  0  0  0  0  0  0  0
    0.7500    1.2990    0.0000 C   0  0  0  0  0  0  0  0  0  0  0  0
  1  2  1  0
  2  3  1  0
  2  4  1  0
  2  5  1  0
  5  6  1  0
  6  7  2  0
  6  8  1  0
  8  9  1  0
  9 10  1  0
 10 11  1  0
 11 12  1  0
 12 13  2  0
 12 14  1  0
 14 15  1  0
 15 16  1  0
 16 17  2  0
 17 18  1  0
 18 19  2  0
 19 20  1  0
 20 21  2  0
 14 22  1  0
 22 23  1  0
 23 24  2  0
 23 25  1  0
 25 26  2  0
 26 27  1  0
 27 28  2  0
 28 29  1  0
 29 30  2  0
 29 31  1  0
 31 32  1  0
 32 33  1  0
 33 34  1  0
 34 35  1  0
 28 36  1  0
 36 37  2  0
 11 38  1  0
 38 39  1  0
 39  8  1  0
 21 16  1  0
 37 25  1  0
 35 31  1  0
M  END
>  <Title>  (70) 
idAACRgen7

$$$$

     RDKit          2D

 67 72  0  0  0  0  0  0  0  0999 V2000
   -1.6145    7.2029    0.0000 C   0  0  0  0  0  0  0  0  0  0  0  0
   -2.7242    6.1936    0.0000 C   0  0  0  0  0  0  0  0  0  0  0  0
   -4.0451    5.4828    0.0000 C   0  0  0  0  0  0  0  0  0  0  0  0
   -3.4350    7.5145    0.0000 C   0  0  0  0  0  0  0  0  0  0  0  0
   -2.0134    4.8727    0.0000 N   0  0  0  0  0  0  0  0  0  0  0  0
   -2.8019    3.5967    0.0000 C   0  0  0  0  0  0  0  0  0  0  0  0
   -4.3012    3.6416    0.0000 O   0  0  0  0  0  0  0  0  0  0  0  0
   -2.0911    2.2758    0.0000 C   0  0  0  0  0  0  0  0  0  0  0  0
   -0.5926    2.3431    0.0000 C   0  0  0  0  0  0  0  0  0  0  0  0
    0.3943    1.2135    0.0000 C   0  0  0  0  0  0  0  0  0  0  0  0
    1.2760    0.0000    0.0000 C   0  0  0  0  0  0  0  0  0  0  0  0
    0.3943   -1.2135    0.0000 C   0  0  0  0  0  0  0  0  0  0  0  0
   -1.0323   -0.7500    0.0000 C   0  0  0  0  0  0  0  0  0  0  0  0
   -2.5737   -0.3836    0.0000 C   0  0  0  0  0  0  0  0  0  0  0  0
   -2.9728    1.0623    0.0000 C   0  0  0  0  0  0  0  0  0  0  0  0
   -4.4487    1.3301    0.0000 C   0  0  0  0  0  0  0  0  0  0  0  0
   -4.9547    2.7422    0.0000 O   0  0  0  0  0  0  0  0  0  0  0  0
   -5.4186    0.1859    0.0000 N   0  0  0  0  0  0  0  0  0  0  0  0
   -6.8945    0.4537    0.0000 C   0  0  0  0  0  0  0  0  0  0  0  0
   -7.8644   -0.6905    0.0000 C   0  0  0  0  0  0  0  0  0  0  0  0
   -9.3403   -0.4227    0.0000 C   0  0  0  0  0  0  0  0  0  0  0  0
   -9.8463    0.9894    0.0000 C   0  0  0  0  0  0  0  0  0  0  0  0
  -11.3221    1.2572    0.0000 C   0  0  0  0  0  0  0  0  0  0  0  0
  -12.2920    0.1130    0.0000 C   0  0  0  0  0  0  0  0  0  0  0  0
  -11.7861   -1.2991    0.0000 C   0  0  0  0  0  0  0  0  0  0  0  0
  -10.3102   -1.5669    0.0000 C   0  0  0  0  0  0  0  0  0  0  0  0
   -7.4005    1.8658    0.0000 C   0  0  0  0  0  0  0  0  0  0  0  0
   -6.4306    3.0101    0.0000 O   0  0  0  0  0  0  0  0  0  0  0  0
   -8.8764    2.1337    0.0000 N   0  0  0  0  0  0  0  0  0  0  0  0
   -9.3823    3.5457    0.0000 C   0  0  0  0  0  0  0  0  0  0  0  0
  -10.8582    3.8136    0.0000 C   0  0  0  0  0  0  0  0  0  0  0  0
  -11.3642    5.2256    0.0000 C   0  0  0  0  0  0  0  0  0  0  0  0
  -10.3943    6.3699    0.0000 C   0  0  0  0  0  0  0  0  0  0  0  0
  -10.9003    7.7820    0.0000 C   0  0  0  0  0  0  0  0  0  0  0  0
  -12.3762    8.0498    0.0000 C   0  0  0  0  0  0  0  0  0  0  0  0
  -13.3461    6.9056    0.0000 C   0  0  0  0  0  0  0  0  0  0  0  0
  -12.8401    5.4935    0.0000 C   0  0  0  0  0  0  0  0  0  0  0  0
   -8.4125    4.6900    0.0000 C   0  0  0  0  0  0  0  0  0  0  0  0
   -6.9366    4.4221    0.0000 O   0  0  0  0  0  0  0  0  0  0  0  0
   -8.9184    6.1021    0.0000 O   0  0  0  0  0  0  0  0  0  0  0  0
   -1.0323    0.7500    0.0000 C   0  0  0  0  0  0  0  0  0  0  0  0
   -2.2458    1.6317    0.0000 C   0  0  0  0  0  0  0  0  0  0  0  0
   -2.0890    3.1235    0.0000 C   0  0  0  0  0  0  0  0  0  0  0  0
   -0.7187    3.7336    0.0000 O   0  0  0  0  0  0  0  0  0  0  0  0
   -3.3025    4.0051    0.0000 C   0  0  0  0  0  0  0  0  0  0  0  0
   -3.1458    5.4969    0.0000 C   0  0  0  0  0  0  0  0  0  0  0  0
   -4.3593    6.3786    0.0000 C   0  0  0  0  0  0  0  0  0  0  0  0
   -4.2025    7.8704    0.0000 C   0  0  0  0  0  0  0  0  0  0  0  0
   -2.8322    8.4805    0.0000 C   0  0  0  0  0  0  0  0  0  0  0  0
   -2.6754    9.9723    0.0000 C   0  0  0  0  0  0  0  0  0  0  0  0
   -3.8889   10.8539    0.0000 C   0  0  0  0  0  0  0  0  0  0  0  0
   -5.2592   10.2438    0.0000 C   0  0  0  0  0  0  0  0  0  0  0  0
   -5.4160    8.7521    0.0000 C   0  0  0  0  0  0  0  0  0  0  0  0
   -1.7754    6.1070    0.0000 C   0  0  0  0  0  0  0  0  0  0  0  0
   -0.5619    5.2253    0.0000 O   0  0  0  0  0  0  0  0  0  0  0  0
   -1.6186    7.5988    0.0000 N   0  0  0  0  0  0  0  0  0  0  0  0
   -0.2483    8.2089    0.0000 C   0  0  0  0  0  0  0  0  0  0  0  0
   -0.0915    9.7007    0.0000 C   0  0  0  0  0  0  0  0  0  0  0  0
    1.2788   10.3108    0.0000 C   0  0  0  0  0  0  0  0  0  0  0  0
    2.4923    9.4291    0.0000 C   0  0  0  0  0  0  0  0  0  0  0  0
    3.8626   10.0392    0.0000 C   0  0  0  0  0  0  0  0  0  0  0  0
    4.0194   11.5310    0.0000 C   0  0  0  0  0  0  0  0  0  0  0  0
    2.8059   12.4127    0.0000 C   0  0  0  0  0  0  0  0  0  0  0  0
    1.4356   11.8026    0.0000 C   0  0  0  0  0  0  0  0  0  0  0  0
    0.9652    7.3272    0.0000 C   0  0  0  0  0  0  0  0  0  0  0  0
    0.8084    5.8355    0.0000 O   0  0  0  0  0  0  0  0  0  0  0  0
    2.3355    7.9373    0.0000 O   0  0  0  0  0  0  0  0  0  0  0  0
  1  2  1  0
  2  3  1  0
  2  4  1  0
  2  5  1  0
  5  6  1  0
  6  7  2  0
  6  8  1  0
  8  9  1  0
  9 10  1  0
 10 11  1  0
 11 12  1  0
 12 13  1  0
 13 14  1  0
 14 15  1  0
 15 16  1  0
 16 17  2  0
 16 18  1  0
 18 19  1  0
 19 20  1  0
 20 21  1  0
 21 22  2  0
 22 23  1  0
 23 24  2  0
 24 25  1  0
 25 26  2  0
 19 27  1  0
 27 28  2  0
 27 29  1  0
 29 30  1  0
 30 31  1  0
 31 32  1  0
 32 33  2  0
 33 34  1  0
 34 35  2  0
 35 36  1  0
 36 37  2  0
 30 38  1  0
 38 39  2  0
 38 40  1  0
 13 41  1  0
 41 42  1  0
 42 43  1  0
 43 44  1  0
 43 45  1  0
 45 46  1  0
 46 47  1  0
 47 48  1  0
 48 49  2  0
 49 50  1  0
 50 51  2  0
 51 52  1  0
 52 53  2  0
 46 54  1  0
 54 55  2  0
 54 56  1  0
 56 57  1  0
 57 58  1  0
 58 59  1  0
 59 60  2  0
 60 61  1  0
 61 62  2  0
 62 63  1  0
 63 64  2  0
 57 65  1  0
 65 66  2  0
 65 67  1  0
 15  8  1  0
 26 21  1  0
 37 32  1  0
 53 48  1  0
 64 59  1  0
 41 10  1  0
M  END
>  <Title>  (71) 
idAACSgen7

$$$$

     RDKit          2D

 59 63  0  0  0  0  0  0  0  0999 V2000
   -5.3849    0.4488    0.0000 C   0  0  0  0  0  0  0  0  0  0  0  0
   -3.9583   -0.0147    0.0000 C   0  0  0  0  0  0  0  0  0  0  0  0
   -2.5317   -0.4783    0.0000 C   0  0  0  0  0  0  0  0  0  0  0  0
   -3.4948    1.4118    0.0000 C   0  0  0  0  0  0  0  0  0  0  0  0
   -4.4218   -1.4413    0.0000 O   0  0  0  0  0  0  0  0  0  0  0  0
   -3.4182   -2.5560    0.0000 C   0  0  0  0  0  0  0  0  0  0  0  0
   -1.9509   -2.2442    0.0000 O   0  0  0  0  0  0  0  0  0  0  0  0
   -3.8817   -3.9826    0.0000 N   0  0  0  0  0  0  0  0  0  0  0  0
   -5.3083   -4.4462    0.0000 C   0  0  0  0  0  0  0  0  0  0  0  0
   -5.3083   -5.9462    0.0000 C   0  0  0  0  0  0  0  0  0  0  0  0
   -3.8817   -6.4097    0.0000 C   0  0  0  0  0  0  0  0  0  0  0  0
   -3.0000   -5.1962    0.0000 C   0  0  0  0  0  0  0  0  0  0  0  0
   -1.5000   -5.1962    0.0000 C   0  0  0  0  0  0  0  0  0  0  0  0
   -0.7500   -6.4952    0.0000 O   0  0  0  0  0  0  0  0  0  0  0  0
   -0.7500   -3.8971    0.0000 N   0  0  0  0  0  0  0  0  0  0  0  0
    0.7500   -3.8971    0.0000 C   0  0  0  0  0  0  0  0  0  0  0  0
    1.5000   -2.5981    0.0000 C   0  0  0  0  0  0  0  0  0  0  0  0
    0.7500   -1.2990    0.0000 C   0  0  0  0  0  0  0  0  0  0  0  0
    1.5000    0.0000    0.0000 C   0  0  0  0  0  0  0  0  0  0  0  0
    0.7500    1.2990    0.0000 C   0  0  0  0  0  0  0  0  0  0  0  0
   -0.7500    1.2990    0.0000 C   0  0  0  0  0  0  0  0  0  0  0  0
   -1.5000    0.0000    0.0000 C   0  0  0  0  0  0  0  0  0  0  0  0
   -0.7500   -1.2990    0.0000 C   0  0  0  0  0  0  0  0  0  0  0  0
    1.5000   -5.1962    0.0000 C   0  0  0  0  0  0  0  0  0  0  0  0
    3.0000   -5.1962    0.0000 O   0  0  0  0  0  0  0  0  0  0  0  0
    0.7500   -6.4952    0.0000 N   0  0  0  0  0  0  0  0  0  0  0  0
    1.5000   -7.7942    0.0000 C   0  0  0  0  0  0  0  0  0  0  0  0
    0.7500   -9.0933    0.0000 C   0  0  0  0  0  0  0  0  0  0  0  0
    1.5000  -10.3923    0.0000 C   0  0  0  0  0  0  0  0  0  0  0  0
    0.7500  -11.6913    0.0000 C   0  0  0  0  0  0  0  0  0  0  0  0
    1.5000  -12.9904    0.0000 C   0  0  0  0  0  0  0  0  0  0  0  0
    3.0000  -12.9904    0.0000 C   0  0  0  0  0  0  0  0  0  0  0  0
    3.7500  -11.6913    0.0000 C   0  0  0  0  0  0  0  0  0  0  0  0
    3.0000  -10.3923    0.0000 C   0  0  0  0  0  0  0  0  0  0  0  0
    3.0000   -7.7942    0.0000 C   0  0  0  0  0  0  0  0  0  0  0  0
    3.7500   -6.4952    0.0000 O   0  0  0  0  0  0  0  0  0  0  0  0
    3.7500   -9.0933    0.0000 N   0  0  0  0  0  0  0  0  0  0  0  0
    5.2500   -9.0933    0.0000 C   0  0  0  0  0  0  0  0  0  0  0  0
    6.0000  -10.3923    0.0000 C   0  0  0  0  0  0  0  0  0  0  0  0
    7.5000  -10.3923    0.0000 C   0  0  0  0  0  0  0  0  0  0  0  0
    8.2500  -11.6913    0.0000 C   0  0  0  0  0  0  0  0  0  0  0  0
    9.7500  -11.6913    0.0000 C   0  0  0  0  0  0  0  0  0  0  0  0
   10.5000  -10.3923    0.0000 C   0  0  0  0  0  0  0  0  0  0  0  0
    9.7500   -9.0933    0.0000 C   0  0  0  0  0  0  0  0  0  0  0  0
    8.2500   -9.0933    0.0000 C   0  0  0  0  0  0  0  0  0  0  0  0
    6.0000   -7.7942    0.0000 C   0  0  0  0  0  0  0  0  0  0  0  0
    5.2500   -6.4952    0.0000 O   0  0  0  0  0  0  0  0  0  0  0  0
    7.5000   -7.7942    0.0000 N   0  0  0  0  0  0  0  0  0  0  0  0
    8.2500   -6.4952    0.0000 C   0  0  0  0  0  0  0  0  0  0  0  0
    9.7500   -6.4952    0.0000 C   0  0  0  0  0  0  0  0  0  0  0  0
   10.5000   -5.1962    0.0000 C   0  0  0  0  0  0  0  0  0  0  0  0
   12.0000   -5.1962    0.0000 C   0  0  0  0  0  0  0  0  0  0  0  0
   12.7500   -3.8971    0.0000 C   0  0  0  0  0  0  0  0  0  0  0  0
   12.0000   -2.5981    0.0000 C   0  0  0  0  0  0  0  0  0  0  0  0
   10.5000   -2.5981    0.0000 C   0  0  0  0  0  0  0  0  0  0  0  0
    9.7500   -3.8971    0.0000 C   0  0  0  0  0  0  0  0  0  0  0  0
    7.5000   -5.1962    0.0000 C   0  0  0  0  0  0  0  0  0  0  0  0
    6.0000   -5.1962    0.0000 O   0  0  0  0  0  0  0  0  0  0  0  0
    8.2500   -3.8971    0.0000 O   0  0  0  0  0  0  0  0  0  0  0  0
  1  2  1  0
  2  3  1  0
  2  4  1  0
  2  5  1  0
  5  6  1  0
  6  7  2  0
  6  8  1  0
  8  9  1  0
  9 10  1  0
 10 11  1  0
 11 12  1  0
 12 13  1  0
 13 14  2  0
 13 15  1  0
 15 16  1  0
 16 17  1  0
 17 18  1  0
 18 19  2  0
 19 20  1  0
 20 21  2  0
 21 22  1  0
 22 23  2  0
 16 24  1  0
 24 25  2  0
 24 26  1  0
 26 27  1  0
 27 28  1  0
 28 29  1  0
 29 30  2  0
 30 31  1  0
 31 32  2  0
 32 33  1  0
 33 34  2  0
 27 35  1  0
 35 36  2  0
 35 37  1  0
 37 38  1  0
 38 39  1  0
 39 40  1  0
 40 41  2  0
 41 42  1  0
 42 43  2  0
 43 44  1  0
 44 45  2  0
 38 46  1  0
 46 47  2  0
 46 48  1  0
 48 49  1  0
 49 50  1  0
 50 51  1  0
 51 52  2  0
 52 53  1  0
 53 54  2  0
 54 55  1  0
 55 56  2  0
 49 57  1  0
 57 58  2  0
 57 59  1  0
 12  8  1  0
 23 18  1  0
 34 29  1  0
 45 40  1  0
 56 51  1  0
M  END
>  <Title>  (72) 
idAACTgen7

$$$$

     RDKit          2D

 78 86  0  0  0  0  0  0  0  0999 V2000
   -3.7500   -9.0933    0.0000 O   0  0  0  0  0  0  0  0  0  0  0  0
   -5.2500   -9.0933    0.0000 C   0  0  0  0  0  0  0  0  0  0  0  0
   -6.0000   -7.7942    0.0000 C   0  0  0  0  0  0  0  0  0  0  0  0
   -7.5000   -7.7942    0.0000 C   0  0  0  0  0  0  0  0  0  0  0  0
   -8.2500   -6.4952    0.0000 C   0  0  0  0  0  0  0  0  0  0  0  0
   -9.7500   -6.4952    0.0000 C   0  0  0  0  0  0  0  0  0  0  0  0
  -10.5000   -5.1962    0.0000 C   0  0  0  0  0  0  0  0  0  0  0  0
   -9.7500   -3.8971    0.0000 C   0  0  0  0  0  0  0  0  0  0  0  0
   -8.2500   -3.8971    0.0000 C   0  0  0  0  0  0  0  0  0  0  0  0
   -7.5000   -5.1962    0.0000 C   0  0  0  0  0  0  0  0  0  0  0  0
   -5.2500   -6.4952    0.0000 N   0  0  0  0  0  0  0  0  0  0  0  0
   -3.7500   -6.4952    0.0000 C   0  0  0  0  0  0  0  0  0  0  0  0
   -3.0000   -7.7942    0.0000 O   0  0  0  0  0  0  0  0  0  0  0  0
   -3.0000   -5.1962    0.0000 C   0  0  0  0  0  0  0  0  0  0  0  0
   -1.5000   -5.1962    0.0000 C   0  0  0  0  0  0  0  0  0  0  0  0
   -0.7500   -3.8971    0.0000 C   0  0  0  0  0  0  0  0  0  0  0  0
   -1.5000   -2.5981    0.0000 C   0  0  0  0  0  0  0  0  0  0  0  0
   -0.7500   -1.2990    0.0000 C   0  0  0  0  0  0  0  0  0  0  0  0
    0.7500   -1.2990    0.0000 C   0  0  0  0  0  0  0  0  0  0  0  0
    1.5000   -2.5981    0.0000 C   0  0  0  0  0  0  0  0  0  0  0  0
    0.7500   -3.8971    0.0000 C   0  0  0  0  0  0  0  0  0  0  0  0
   -3.7500   -3.8971    0.0000 N   0  0  0  0  0  0  0  0  0  0  0  0
   -5.2500   -3.8971    0.0000 C   0  0  0  0  0  0  0  0  0  0  0  0
   -6.0000   -5.1962    0.0000 O   0  0  0  0  0  0  0  0  0  0  0  0
   -6.0000   -2.5981    0.0000 C   0  0  0  0  0  0  0  0  0  0  0  0
   -7.5000   -2.5981    0.0000 C   0  0  0  0  0  0  0  0  0  0  0  0
   -8.2500   -1.2990    0.0000 C   0  0  0  0  0  0  0  0  0  0  0  0
   -7.5000    0.0000    0.0000 C   0  0  0  0  0  0  0  0  0  0  0  0
   -8.2500    1.2990    0.0000 C   0  0  0  0  0  0  0  0  0  0  0  0
   -9.7500    1.2990    0.0000 C   0  0  0  0  0  0  0  0  0  0  0  0
  -10.5000    0.0000    0.0000 C   0  0  0  0  0  0  0  0  0  0  0  0
   -9.7500   -1.2990    0.0000 C   0  0  0  0  0  0  0  0  0  0  0  0
   -5.2500   -1.2990    0.0000 N   0  0  0  0  0  0  0  0  0  0  0  0
   -6.0000    0.0000    0.0000 C   0  0  0  0  0  0  0  0  0  0  0  0
   -6.7735    0.1929    0.0000 O   0  0  0  0  0  0  0  0  0  0  0  0
   -5.2500    1.2990    0.0000 C   0  0  0  0  0  0  0  0  0  0  0  0
   -6.0000    2.5981    0.0000 C   0  0  0  0  0  0  0  0  0  0  0  0
   -5.2500    3.8971    0.0000 C   0  0  0  0  0  0  0  0  0  0  0  0
   -3.7500    3.8971    0.0000 C   0  0  0  0  0  0  0  0  0  0  0  0
   -3.0000    5.1962    0.0000 C   0  0  0  0  0  0  0  0  0  0  0  0
   -3.7500    6.4952    0.0000 C   0  0  0  0  0  0  0  0  0  0  0  0
   -5.2500    6.4952    0.0000 C   0  0  0  0  0  0  0  0  0  0  0  0
   -6.0000    5.1962    0.0000 C   0  0  0  0  0  0  0  0  0  0  0  0
   -3.7500    1.2990    0.0000 N   0  0  0  0  0  0  0  0  0  0  0  0
   -3.0000    2.5981    0.0000 C   0  0  0  0  0  0  0  0  0  0  0  0
   -3.7500    3.8971    0.0000 O   0  0  0  0  0  0  0  0  0  0  0  0
   -1.5000    2.5981    0.0000 C   0  0  0  0  0  0  0  0  0  0  0  0
   -1.6568    1.1063    0.0000 C   0  0  0  0  0  0  0  0  0  0  0  0
   -3.0271    0.4962    0.0000 C   0  0  0  0  0  0  0  0  0  0  0  0
   -4.2406    1.3779    0.0000 C   0  0  0  0  0  0  0  0  0  0  0  0
   -5.6110    0.7678    0.0000 C   0  0  0  0  0  0  0  0  0  0  0  0
   -5.7677   -0.7240    0.0000 C   0  0  0  0  0  0  0  0  0  0  0  0
   -4.5542   -1.6057    0.0000 C   0  0  0  0  0  0  0  0  0  0  0  0
   -3.1839   -0.9956    0.0000 C   0  0  0  0  0  0  0  0  0  0  0  0
   -0.0328    2.2862    0.0000 C   0  0  0  0  0  0  0  0  0  0  0  0
    0.7172    3.5852    0.0000 C   0  0  0  0  0  0  0  0  0  0  0  0
   -0.2865    4.7000    0.0000 C   0  0  0  0  0  0  0  0  0  0  0  0
   -1.6568    4.0899    0.0000 C   0  0  0  0  0  0  0  0  0  0  0  0
   -2.9558    4.8399    0.0000 C   0  0  0  0  0  0  0  0  0  0  0  0
   -2.9558    6.3399    0.0000 C   0  0  0  0  0  0  0  0  0  0  0  0
   -4.2549    7.0899    0.0000 O   0  0  0  0  0  0  0  0  0  0  0  0
   -5.5539    6.3399    0.0000 C   0  0  0  0  0  0  0  0  0  0  0  0
   -5.5539    4.8399    0.0000 C   0  0  0  0  0  0  0  0  0  0  0  0
   -6.8529    4.0899    0.0000 N   0  0  0  0  0  0  0  0  0  0  0  0
   -8.1520    4.8399    0.0000 C   0  0  0  0  0  0  0  0  0  0  0  0
   -8.1520    6.3399    0.0000 O   0  0  0  0  0  0  0  0  0  0  0  0
   -9.4510    4.0899    0.0000 N   0  0  0  0  0  0  0  0  0  0  0  0
  -10.7501    4.8399    0.0000 C   0  0  0  0  0  0  0  0  0  0  0  0
  -12.0491    4.0899    0.0000 C   0  0  0  0  0  0  0  0  0  0  0  0
  -11.5361    2.6803    0.0000 C   0  0  0  0  0  0  0  0  0  0  0  0
  -12.5002    1.5313    0.0000 C   0  0  0  0  0  0  0  0  0  0  0  0
  -11.9872    0.1217    0.0000 C   0  0  0  0  0  0  0  0  0  0  0  0
  -10.5100   -0.1388    0.0000 C   0  0  0  0  0  0  0  0  0  0  0  0
   -9.5458    1.0103    0.0000 C   0  0  0  0  0  0  0  0  0  0  0  0
  -10.0589    2.4198    0.0000 C   0  0  0  0  0  0  0  0  0  0  0  0
  -13.5263    3.8294    0.0000 C   0  0  0  0  0  0  0  0  0  0  0  0
  -13.0133    5.2389    0.0000 C   0  0  0  0  0  0  0  0  0  0  0  0
   -4.2549    4.0899    0.0000 C   0  0  0  0  0  0  0  0  0  0  0  0
  1  2  2  0
  2  3  1  0
  3  4  1  0
  4  5  1  0
  5  6  2  0
  6  7  1  0
  7  8  2  0
  8  9  1  0
  9 10  2  0
  3 11  1  0
 11 12  1  0
 12 13  2  0
 12 14  1  0
 14 15  1  0
 15 16  1  0
 16 17  2  0
 17 18  1  0
 18 19  2  0
 19 20  1  0
 20 21  2  0
 14 22  1  0
 22 23  1  0
 23 24  2  0
 23 25  1  0
 25 26  1  0
 26 27  1  0
 27 28  2  0
 28 29  1  0
 29 30  2  0
 30 31  1  0
 31 32  2  0
 25 33  1  0
 33 34  1  0
 34 35  2  0
 34 36  1  0
 36 37  1  0
 37 38  1  0
 38 39  2  0
 39 40  1  0
 40 41  2  0
 41 42  1  0
 42 43  2  0
 36 44  1  0
 44 45  1  0
 45 46  2  0
 45 47  1  0
 47 48  1  0
 48 49  1  0
 49 50  2  0
 50 51  1  0
 51 52  2  0
 52 53  1  0
 53 54  2  0
 47 55  1  0
 55 56  1  0
 56 57  1  0
 57 58  1  0
 58 59  1  0
 59 60  1  0
 60 61  1  0
 61 62  1  0
 62 63  1  0
 63 64  1  0
 64 65  1  0
 65 66  2  0
 65 67  1  0
 67 68  1  0
 68 69  1  0
 69 70  1  0
 70 71  2  0
 71 72  1  0
 72 73  2  0
 73 74  1  0
 74 75  2  0
 69 76  1  0
 76 77  1  0
 63 78  1  0
 10  5  1  0
 21 16  1  0
 32 27  1  0
 43 38  1  0
 58 47  1  0
 78 59  1  0
 54 49  1  0
 77 69  1  0
 75 70  1  0
M  END
>  <Title>  (73) 
idAACUgen7

$$$$

     RDKit          2D

 65 70  0  0  0  0  0  0  0  0999 V2000
   -7.9140    5.6597    0.0000 C   0  0  0  0  0  0  0  0  0  0  0  0
   -7.9140    7.1597    0.0000 C   0  0  0  0  0  0  0  0  0  0  0  0
   -7.9140    8.6597    0.0000 C   0  0  0  0  0  0  0  0  0  0  0  0
   -9.4140    7.1597    0.0000 C   0  0  0  0  0  0  0  0  0  0  0  0
   -6.4140    7.1597    0.0000 C   0  0  0  0  0  0  0  0  0  0  0  0
   -5.6640    8.4587    0.0000 C   0  0  0  0  0  0  0  0  0  0  0  0
   -6.4140    9.7578    0.0000 N   0  0  0  0  0  0  0  0  0  0  0  0
   -5.6640   11.0568    0.0000 C   0  0  0  0  0  0  0  0  0  0  0  0
   -4.1640   11.0568    0.0000 O   0  0  0  0  0  0  0  0  0  0  0  0
   -6.4140   12.3558    0.0000 C   0  0  0  0  0  0  0  0  0  0  0  0
   -7.9140   12.3558    0.0000 C   0  0  0  0  0  0  0  0  0  0  0  0
   -8.6640   11.0568    0.0000 C   0  0  0  0  0  0  0  0  0  0  0  0
   -7.9140    9.7578    0.0000 C   0  0  0  0  0  0  0  0  0  0  0  0
   -8.6640    8.4587    0.0000 C   0  0  0  0  0  0  0  0  0  0  0  0
  -10.1640    8.4587    0.0000 C   0  0  0  0  0  0  0  0  0  0  0  0
  -10.9140    9.7578    0.0000 C   0  0  0  0  0  0  0  0  0  0  0  0
  -10.1640   11.0568    0.0000 C   0  0  0  0  0  0  0  0  0  0  0  0
   -5.6640   13.6549    0.0000 N   0  0  0  0  0  0  0  0  0  0  0  0
   -4.1640   13.6549    0.0000 C   0  0  0  0  0  0  0  0  0  0  0  0
   -3.4140   12.3558    0.0000 O   0  0  0  0  0  0  0  0  0  0  0  0
   -3.4140   14.9539    0.0000 O   0  0  0  0  0  0  0  0  0  0  0  0
   -1.9140   14.9539    0.0000 C   0  0  0  0  0  0  0  0  0  0  0  0
   -1.0323   13.7404    0.0000 C   0  0  0  0  0  0  0  0  0  0  0  0
    0.3943   14.2039    0.0000 O   0  0  0  0  0  0  0  0  0  0  0  0
    0.3943   15.7039    0.0000 C   0  0  0  0  0  0  0  0  0  0  0  0
    1.2760   16.9174    0.0000 O   0  0  0  0  0  0  0  0  0  0  0  0
    0.3943   18.1310    0.0000 C   0  0  0  0  0  0  0  0  0  0  0  0
   -1.0323   17.6674    0.0000 C   0  0  0  0  0  0  0  0  0  0  0  0
   -1.0323   16.1674    0.0000 C   0  0  0  0  0  0  0  0  0  0  0  0
   -4.1640    8.4587    0.0000 S   0  0  0  0  0  0  0  0  0  0  0  0
   -4.1640    6.9587    0.0000 O   0  0  0  0  0  0  0  0  0  0  0  0
   -4.1640    9.9587    0.0000 O   0  0  0  0  0  0  0  0  0  0  0  0
   -2.6640    8.4587    0.0000 C   0  0  0  0  0  0  0  0  0  0  0  0
   -1.9140    7.1597    0.0000 C   0  0  0  0  0  0  0  0  0  0  0  0
   -0.4140    7.1597    0.0000 C   0  0  0  0  0  0  0  0  0  0  0  0
    0.3360    8.4587    0.0000 C   0  0  0  0  0  0  0  0  0  0  0  0
    1.8360    8.4587    0.0000 N   0  0  0  0  0  0  0  0  0  0  0  0
    2.5860    7.1597    0.0000 C   0  0  0  0  0  0  0  0  0  0  0  0
    1.8360    5.8606    0.0000 O   0  0  0  0  0  0  0  0  0  0  0  0
    4.0860    7.1597    0.0000 C   0  0  0  0  0  0  0  0  0  0  0  0
    4.8360    8.4587    0.0000 O   0  0  0  0  0  0  0  0  0  0  0  0
    4.8360    5.8606    0.0000 C   0  0  0  0  0  0  0  0  0  0  0  0
    6.3360    5.8606    0.0000 C   0  0  0  0  0  0  0  0  0  0  0  0
    7.0860    4.5616    0.0000 C   0  0  0  0  0  0  0  0  0  0  0  0
    6.3360    3.2626    0.0000 C   0  0  0  0  0  0  0  0  0  0  0  0
    7.0860    1.9635    0.0000 C   0  0  0  0  0  0  0  0  0  0  0  0
    8.5860    1.9635    0.0000 C   0  0  0  0  0  0  0  0  0  0  0  0
    9.3360    3.2626    0.0000 C   0  0  0  0  0  0  0  0  0  0  0  0
    8.5860    4.5616    0.0000 C   0  0  0  0  0  0  0  0  0  0  0  0
    4.0860    4.5616    0.0000 C   0  0  0  0  0  0  0  0  0  0  0  0
    2.5860    4.5616    0.0000 O   0  0  0  0  0  0  0  0  0  0  0  0
    4.8360    3.2626    0.0000 N   0  0  0  0  0  0  0  0  0  0  0  0
    4.0860    1.9635    0.0000 C   0  0  0  0  0  0  0  0  0  0  0  0
    4.8360    0.6645    0.0000 C   0  0  0  0  0  0  0  0  0  0  0  0
    4.0860   -0.6346    0.0000 C   0  0  0  0  0  0  0  0  0  0  0  0
    2.5860   -0.6346    0.0000 C   0  0  0  0  0  0  0  0  0  0  0  0
    1.8360   -1.9336    0.0000 C   0  0  0  0  0  0  0  0  0  0  0  0
    2.5860   -3.2326    0.0000 C   0  0  0  0  0  0  0  0  0  0  0  0
    4.0860   -3.2326    0.0000 C   0  0  0  0  0  0  0  0  0  0  0  0
    4.8360   -1.9336    0.0000 C   0  0  0  0  0  0  0  0  0  0  0  0
    2.5860    1.9635    0.0000 C   0  0  0  0  0  0  0  0  0  0  0  0
    1.8360    3.2626    0.0000 O   0  0  0  0  0  0  0  0  0  0  0  0
    1.8360    0.6645    0.0000 O   0  0  0  0  0  0  0  0  0  0  0  0
   -0.4140    9.7578    0.0000 C   0  0  0  0  0  0  0  0  0  0  0  0
   -1.9140    9.7578    0.0000 C   0  0  0  0  0  0  0  0  0  0  0  0
  1  2  1  0
  2  3  1  0
  2  4  1  0
  2  5  1  0
  5  6  1  0
  6  7  1  0
  7  8  1  0
  8  9  2  0
  8 10  1  0
 10 11  1  0
 11 12  1  0
 12 13  2  0
 13 14  1  0
 14 15  2  0
 15 16  1  0
 16 17  2  0
 10 18  1  0
 18 19  1  0
 19 20  2  0
 19 21  1  0
 21 22  1  0
 22 23  1  0
 23 24  1  0
 24 25  1  0
 25 26  1  0
 26 27  1  0
 27 28  1  0
 28 29  1  0
  6 30  1  0
 30 31  2  0
 30 32  2  0
 30 33  1  0
 33 34  2  0
 34 35  1  0
 35 36  2  0
 36 37  1  0
 37 38  1  0
 38 39  2  0
 38 40  1  0
 40 41  1  0
 40 42  1  0
 42 43  1  0
 43 44  1  0
 44 45  2  0
 45 46  1  0
 46 47  2  0
 47 48  1  0
 48 49  2  0
 42 50  1  0
 50 51  2  0
 50 52  1  0
 52 53  1  0
 53 54  1  0
 54 55  1  0
 55 56  2  0
 56 57  1  0
 57 58  2  0
 58 59  1  0
 59 60  2  0
 53 61  1  0
 61 62  2  0
 61 63  1  0
 36 64  1  0
 64 65  2  0
 17 12  1  0
 29 22  1  0
 65 33  1  0
 29 25  1  0
 49 44  1  0
 60 55  1  0
M  END
>  <Title>  (74) 
idAACVgen7

$$$$

     RDKit          2D

 75 81  0  0  0  0  0  0  0  0999 V2000
   -5.0984    5.7571    0.0000 C   0  0  0  0  0  0  0  0  0  0  0  0
   -3.7177    6.3433    0.0000 C   0  0  0  0  0  0  0  0  0  0  0  0
   -2.2361    6.5779    0.0000 C   0  0  0  0  0  0  0  0  0  0  0  0
   -3.5869    7.8376    0.0000 C   0  0  0  0  0  0  0  0  0  0  0  0
   -3.4830    4.8617    0.0000 C   0  0  0  0  0  0  0  0  0  0  0  0
   -2.0827    4.3242    0.0000 C   0  0  0  0  0  0  0  0  0  0  0  0
   -0.9169    5.2682    0.0000 O   0  0  0  0  0  0  0  0  0  0  0  0
   -1.8480    2.8427    0.0000 N   0  0  0  0  0  0  0  0  0  0  0  0
   -3.1270    2.0589    0.0000 C   0  0  0  0  0  0  0  0  0  0  0  0
   -3.4771    0.6004    0.0000 C   0  0  0  0  0  0  0  0  0  0  0  0
   -2.6934   -0.6786    0.0000 O   0  0  0  0  0  0  0  0  0  0  0  0
   -1.0323   -0.7500    0.0000 C   0  0  0  0  0  0  0  0  0  0  0  0
    0.3943   -1.2135    0.0000 C   0  0  0  0  0  0  0  0  0  0  0  0
    1.2760    0.0000    0.0000 C   0  0  0  0  0  0  0  0  0  0  0  0
    0.3943    1.2135    0.0000 C   0  0  0  0  0  0  0  0  0  0  0  0
   -0.3894    2.4925    0.0000 C   0  0  0  0  0  0  0  0  0  0  0  0
   -1.0323    0.7500    0.0000 C   0  0  0  0  0  0  0  0  0  0  0  0
   -2.2458    1.6317    0.0000 C   0  0  0  0  0  0  0  0  0  0  0  0
   -3.7230    1.3713    0.0000 O   0  0  0  0  0  0  0  0  0  0  0  0
   -2.0890    3.1235    0.0000 N   0  0  0  0  0  0  0  0  0  0  0  0
   -3.3025    4.0051    0.0000 C   0  0  0  0  0  0  0  0  0  0  0  0
   -3.1458    5.4969    0.0000 C   0  0  0  0  0  0  0  0  0  0  0  0
   -4.3593    6.3786    0.0000 C   0  0  0  0  0  0  0  0  0  0  0  0
   -4.2025    7.8704    0.0000 C   0  0  0  0  0  0  0  0  0  0  0  0
   -5.4160    8.7521    0.0000 C   0  0  0  0  0  0  0  0  0  0  0  0
   -6.7863    8.1420    0.0000 C   0  0  0  0  0  0  0  0  0  0  0  0
   -6.9431    6.6502    0.0000 C   0  0  0  0  0  0  0  0  0  0  0  0
   -5.7296    5.7685    0.0000 C   0  0  0  0  0  0  0  0  0  0  0  0
   -4.6729    3.3950    0.0000 C   0  0  0  0  0  0  0  0  0  0  0  0
   -4.8297    1.9033    0.0000 O   0  0  0  0  0  0  0  0  0  0  0  0
   -5.8864    4.2767    0.0000 N   0  0  0  0  0  0  0  0  0  0  0  0
   -7.2567    3.6666    0.0000 C   0  0  0  0  0  0  0  0  0  0  0  0
   -8.4702    4.5483    0.0000 C   0  0  0  0  0  0  0  0  0  0  0  0
   -9.8406    3.9382    0.0000 C   0  0  0  0  0  0  0  0  0  0  0  0
  -11.0541    4.8199    0.0000 C   0  0  0  0  0  0  0  0  0  0  0  0
  -12.4244    4.2098    0.0000 C   0  0  0  0  0  0  0  0  0  0  0  0
  -12.5812    2.7180    0.0000 C   0  0  0  0  0  0  0  0  0  0  0  0
  -11.3677    1.8363    0.0000 C   0  0  0  0  0  0  0  0  0  0  0  0
   -9.9973    2.4464    0.0000 C   0  0  0  0  0  0  0  0  0  0  0  0
   -7.4135    2.1748    0.0000 C   0  0  0  0  0  0  0  0  0  0  0  0
   -6.2000    1.2931    0.0000 O   0  0  0  0  0  0  0  0  0  0  0  0
   -8.7838    1.5647    0.0000 N   0  0  0  0  0  0  0  0  0  0  0  0
   -8.9406    0.0729    0.0000 C   0  0  0  0  0  0  0  0  0  0  0  0
  -10.3109   -0.5372    0.0000 C   0  0  0  0  0  0  0  0  0  0  0  0
  -10.4677   -2.0290    0.0000 C   0  0  0  0  0  0  0  0  0  0  0  0
  -11.8380   -2.6391    0.0000 C   0  0  0  0  0  0  0  0  0  0  0  0
  -11.9948   -4.1308    0.0000 C   0  0  0  0  0  0  0  0  0  0  0  0
  -10.7813   -5.0125    0.0000 C   0  0  0  0  0  0  0  0  0  0  0  0
   -9.4110   -4.4024    0.0000 C   0  0  0  0  0  0  0  0  0  0  0  0
   -9.2542   -2.9106    0.0000 C   0  0  0  0  0  0  0  0  0  0  0  0
   -7.7271   -0.8087    0.0000 C   0  0  0  0  0  0  0  0  0  0  0  0
   -6.3568   -0.1986    0.0000 O   0  0  0  0  0  0  0  0  0  0  0  0
   -7.8839   -2.3005    0.0000 N   0  0  0  0  0  0  0  0  0  0  0  0
   -6.6704   -3.1822    0.0000 C   0  0  0  0  0  0  0  0  0  0  0  0
   -6.8271   -4.6740    0.0000 C   0  0  0  0  0  0  0  0  0  0  0  0
   -5.6136   -5.5557    0.0000 C   0  0  0  0  0  0  0  0  0  0  0  0
   -5.7704   -7.0474    0.0000 C   0  0  0  0  0  0  0  0  0  0  0  0
   -4.5569   -7.9291    0.0000 C   0  0  0  0  0  0  0  0  0  0  0  0
   -3.1866   -7.3190    0.0000 C   0  0  0  0  0  0  0  0  0  0  0  0
   -3.0298   -5.8272    0.0000 C   0  0  0  0  0  0  0  0  0  0  0  0
   -4.2433   -4.9456    0.0000 C   0  0  0  0  0  0  0  0  0  0  0  0
   -5.3000   -2.5721    0.0000 C   0  0  0  0  0  0  0  0  0  0  0  0
   -5.1432   -1.0803    0.0000 O   0  0  0  0  0  0  0  0  0  0  0  0
   -4.0865   -3.4538    0.0000 N   0  0  0  0  0  0  0  0  0  0  0  0
   -2.7162   -2.8437    0.0000 C   0  0  0  0  0  0  0  0  0  0  0  0
   -1.5027   -3.7253    0.0000 C   0  0  0  0  0  0  0  0  0  0  0  0
   -0.1323   -3.1152    0.0000 C   0  0  0  0  0  0  0  0  0  0  0  0
    1.0812   -3.9969    0.0000 C   0  0  0  0  0  0  0  0  0  0  0  0
    2.4515   -3.3868    0.0000 C   0  0  0  0  0  0  0  0  0  0  0  0
    2.6083   -1.8950    0.0000 C   0  0  0  0  0  0  0  0  0  0  0  0
    1.3948   -1.0134    0.0000 C   0  0  0  0  0  0  0  0  0  0  0  0
    0.0244   -1.6235    0.0000 C   0  0  0  0  0  0  0  0  0  0  0  0
   -2.5594   -1.3519    0.0000 C   0  0  0  0  0  0  0  0  0  0  0  0
   -3.7729   -0.4702    0.0000 O   0  0  0  0  0  0  0  0  0  0  0  0
   -1.0822   -1.0915    0.0000 O   0  0  0  0  0  0  0  0  0  0  0  0
  1  2  1  0
  2  3  1  0
  2  4  1  0
  2  5  1  0
  5  6  1  0
  6  7  2  0
  6  8  1  0
  8  9  1  0
  9 10  1  0
 10 11  1  0
 11 12  1  0
 12 13  1  0
 13 14  1  0
 14 15  1  0
 15 16  1  0
 15 17  1  0
 17 18  1  0
 18 19  2  0
 18 20  1  0
 20 21  1  0
 21 22  1  0
 22 23  1  0
 23 24  2  0
 24 25  1  0
 25 26  2  0
 26 27  1  0
 27 28  2  0
 21 29  1  0
 29 30  2  0
 29 31  1  0
 31 32  1  0
 32 33  1  0
 33 34  1  0
 34 35  2  0
 35 36  1  0
 36 37  2  0
 37 38  1  0
 38 39  2  0
 32 40  1  0
 40 41  2  0
 40 42  1  0
 42 43  1  0
 43 44  1  0
 44 45  1  0
 45 46  2  0
 46 47  1  0
 47 48  2  0
 48 49  1  0
 49 50  2  0
 43 51  1  0
 51 52  2  0
 51 53  1  0
 53 54  1  0
 54 55  1  0
 55 56  1  0
 56 57  2  0
 57 58  1  0
 58 59  2  0
 59 60  1  0
 60 61  2  0
 54 62  1  0
 62 63  2  0
 62 64  1  0
 64 65  1  0
 65 66  1  0
 66 67  1  0
 67 68  2  0
 68 69  1  0
 69 70  2  0
 70 71  1  0
 71 72  2  0
 65 73  1  0
 73 74  2  0
 73 75  1  0
 16  8  1  0
 28 23  1  0
 39 34  1  0
 50 45  1  0
 61 56  1  0
 72 67  1  0
 17 12  1  0
M  END
>  <Title>  (75) 
idAACWgen7

$$$$

     RDKit          2D

 64 69  0  0  0  0  0  0  0  0999 V2000
   -5.0984    5.7571    0.0000 C   0  0  0  0  0  0  0  0  0  0  0  0
   -3.7177    6.3433    0.0000 C   0  0  0  0  0  0  0  0  0  0  0  0
   -2.2361    6.5779    0.0000 C   0  0  0  0  0  0  0  0  0  0  0  0
   -3.5869    7.8376    0.0000 C   0  0  0  0  0  0  0  0  0  0  0  0
   -3.4830    4.8617    0.0000 O   0  0  0  0  0  0  0  0  0  0  0  0
   -2.0827    4.3242    0.0000 C   0  0  0  0  0  0  0  0  0  0  0  0
   -0.9169    5.2682    0.0000 O   0  0  0  0  0  0  0  0  0  0  0  0
   -1.8480    2.8427    0.0000 N   0  0  0  0  0  0  0  0  0  0  0  0
   -3.1270    2.0589    0.0000 C   0  0  0  0  0  0  0  0  0  0  0  0
   -3.4771    0.6004    0.0000 C   0  0  0  0  0  0  0  0  0  0  0  0
   -2.6934   -0.6786    0.0000 O   0  0  0  0  0  0  0  0  0  0  0  0
   -1.0323   -0.7500    0.0000 C   0  0  0  0  0  0  0  0  0  0  0  0
    0.3943   -1.2135    0.0000 C   0  0  0  0  0  0  0  0  0  0  0  0
    1.2760    0.0000    0.0000 C   0  0  0  0  0  0  0  0  0  0  0  0
    0.3943    1.2135    0.0000 C   0  0  0  0  0  0  0  0  0  0  0  0
   -0.3894    2.4925    0.0000 C   0  0  0  0  0  0  0  0  0  0  0  0
   -1.0323    0.7500    0.0000 C   0  0  0  0  0  0  0  0  0  0  0  0
   -2.2458    1.6317    0.0000 C   0  0  0  0  0  0  0  0  0  0  0  0
   -3.7230    1.3713    0.0000 O   0  0  0  0  0  0  0  0  0  0  0  0
   -2.0890    3.1235    0.0000 N   0  0  0  0  0  0  0  0  0  0  0  0
   -3.3025    4.0051    0.0000 C   0  0  0  0  0  0  0  0  0  0  0  0
   -3.1458    5.4969    0.0000 C   0  0  0  0  0  0  0  0  0  0  0  0
   -4.3593    6.3786    0.0000 C   0  0  0  0  0  0  0  0  0  0  0  0
   -4.2025    7.8704    0.0000 C   0  0  0  0  0  0  0  0  0  0  0  0
   -5.4160    8.7521    0.0000 C   0  0  0  0  0  0  0  0  0  0  0  0
   -6.7863    8.1420    0.0000 C   0  0  0  0  0  0  0  0  0  0  0  0
   -6.9431    6.6502    0.0000 C   0  0  0  0  0  0  0  0  0  0  0  0
   -5.7296    5.7685    0.0000 C   0  0  0  0  0  0  0  0  0  0  0  0
   -4.6729    3.3950    0.0000 C   0  0  0  0  0  0  0  0  0  0  0  0
   -4.8297    1.9033    0.0000 O   0  0  0  0  0  0  0  0  0  0  0  0
   -5.8864    4.2767    0.0000 N   0  0  0  0  0  0  0  0  0  0  0  0
   -7.2567    3.6666    0.0000 C   0  0  0  0  0  0  0  0  0  0  0  0
   -8.4702    4.5483    0.0000 C   0  0  0  0  0  0  0  0  0  0  0  0
   -9.8406    3.9382    0.0000 C   0  0  0  0  0  0  0  0  0  0  0  0
  -11.0541    4.8199    0.0000 C   0  0  0  0  0  0  0  0  0  0  0  0
  -12.4244    4.2098    0.0000 C   0  0  0  0  0  0  0  0  0  0  0  0
  -12.5812    2.7180    0.0000 C   0  0  0  0  0  0  0  0  0  0  0  0
  -11.3677    1.8363    0.0000 C   0  0  0  0  0  0  0  0  0  0  0  0
   -9.9973    2.4464    0.0000 C   0  0  0  0  0  0  0  0  0  0  0  0
   -7.4135    2.1748    0.0000 C   0  0  0  0  0  0  0  0  0  0  0  0
   -6.2000    1.2931    0.0000 O   0  0  0  0  0  0  0  0  0  0  0  0
   -8.7838    1.5647    0.0000 N   0  0  0  0  0  0  0  0  0  0  0  0
   -8.9406    0.0729    0.0000 C   0  0  0  0  0  0  0  0  0  0  0  0
  -10.3109   -0.5372    0.0000 C   0  0  0  0  0  0  0  0  0  0  0  0
  -10.4677   -2.0290    0.0000 C   0  0  0  0  0  0  0  0  0  0  0  0
  -11.8380   -2.6391    0.0000 C   0  0  0  0  0  0  0  0  0  0  0  0
  -11.9948   -4.1308    0.0000 C   0  0  0  0  0  0  0  0  0  0  0  0
  -10.7813   -5.0125    0.0000 C   0  0  0  0  0  0  0  0  0  0  0  0
   -9.4110   -4.4024    0.0000 C   0  0  0  0  0  0  0  0  0  0  0  0
   -9.2542   -2.9106    0.0000 C   0  0  0  0  0  0  0  0  0  0  0  0
   -7.7271   -0.8087    0.0000 C   0  0  0  0  0  0  0  0  0  0  0  0
   -6.3568   -0.1986    0.0000 O   0  0  0  0  0  0  0  0  0  0  0  0
   -7.8839   -2.3005    0.0000 N   0  0  0  0  0  0  0  0  0  0  0  0
   -6.6704   -3.1822    0.0000 C   0  0  0  0  0  0  0  0  0  0  0  0
   -6.8271   -4.6740    0.0000 C   0  0  0  0  0  0  0  0  0  0  0  0
   -5.6136   -5.5557    0.0000 C   0  0  0  0  0  0  0  0  0  0  0  0
   -5.7704   -7.0474    0.0000 C   0  0  0  0  0  0  0  0  0  0  0  0
   -4.5569   -7.9291    0.0000 C   0  0  0  0  0  0  0  0  0  0  0  0
   -3.1866   -7.3190    0.0000 C   0  0  0  0  0  0  0  0  0  0  0  0
   -3.0298   -5.8272    0.0000 C   0  0  0  0  0  0  0  0  0  0  0  0
   -4.2433   -4.9456    0.0000 C   0  0  0  0  0  0  0  0  0  0  0  0
   -5.3000   -2.5721    0.0000 C   0  0  0  0  0  0  0  0  0  0  0  0
   -5.1432   -1.0803    0.0000 O   0  0  0  0  0  0  0  0  0  0  0  0
   -4.0865   -3.4538    0.0000 O   0  0  0  0  0  0  0  0  0  0  0  0
  1  2  1  0
  2  3  1  0
  2  4  1  0
  2  5  1  0
  5  6  1  0
  6  7  2  0
  6  8  1  0
  8  9  1  0
  9 10  1  0
 10 11  1  0
 11 12  1  0
 12 13  1  0
 13 14  1  0
 14 15  1  0
 15 16  1  0
 15 17  1  0
 17 18  1  0
 18 19  2  0
 18 20  1  0
 20 21  1  0
 21 22  1  0
 22 23  1  0
 23 24  2  0
 24 25  1  0
 25 26  2  0
 26 27  1  0
 27 28  2  0
 21 29  1  0
 29 30  2  0
 29 31  1  0
 31 32  1  0
 32 33  1  0
 33 34  1  0
 34 35  2  0
 35 36  1  0
 36 37  2  0
 37 38  1  0
 38 39  2  0
 32 40  1  0
 40 41  2  0
 40 42  1  0
 42 43  1  0
 43 44  1  0
 44 45  1  0
 45 46  2  0
 46 47  1  0
 47 48  2  0
 48 49  1  0
 49 50  2  0
 43 51  1  0
 51 52  2  0
 51 53  1  0
 53 54  1  0
 54 55  1  0
 55 56  1  0
 56 57  2  0
 57 58  1  0
 58 59  2  0
 59 60  1  0
 60 61  2  0
 54 62  1  0
 62 63  2  0
 62 64  1  0
 16  8  1  0
 28 23  1  0
 39 34  1  0
 50 45  1  0
 61 56  1  0
 17 12  1  0
M  END
>  <Title>  (76) 
idAACXgen7

$$$$

     RDKit          2D

 78 84  0  0  0  0  0  0  0  0999 V2000
  -12.0000   -5.1962    0.0000 C   0  0  0  0  0  0  0  0  0  0  0  0
  -10.5000   -5.1962    0.0000 C   0  0  0  0  0  0  0  0  0  0  0  0
   -9.7500   -6.4952    0.0000 C   0  0  0  0  0  0  0  0  0  0  0  0
   -8.2500   -6.4952    0.0000 C   0  0  0  0  0  0  0  0  0  0  0  0
   -7.5000   -7.7942    0.0000 C   0  0  0  0  0  0  0  0  0  0  0  0
   -6.0000   -7.7942    0.0000 C   0  0  0  0  0  0  0  0  0  0  0  0
   -5.2500   -6.4952    0.0000 C   0  0  0  0  0  0  0  0  0  0  0  0
   -6.0000   -5.1962    0.0000 C   0  0  0  0  0  0  0  0  0  0  0  0
   -7.5000   -5.1962    0.0000 C   0  0  0  0  0  0  0  0  0  0  0  0
   -9.7500   -3.8971    0.0000 N   0  0  0  0  0  0  0  0  0  0  0  0
  -10.5000   -2.5981    0.0000 C   0  0  0  0  0  0  0  0  0  0  0  0
  -12.0000   -2.5981    0.0000 O   0  0  0  0  0  0  0  0  0  0  0  0
   -9.7500   -1.2990    0.0000 C   0  0  0  0  0  0  0  0  0  0  0  0
  -10.5000    0.0000    0.0000 C   0  0  0  0  0  0  0  0  0  0  0  0
   -9.7500    1.2990    0.0000 C   0  0  0  0  0  0  0  0  0  0  0  0
   -8.2500    1.2990    0.0000 C   0  0  0  0  0  0  0  0  0  0  0  0
   -7.5000    2.5981    0.0000 C   0  0  0  0  0  0  0  0  0  0  0  0
   -8.2500    3.8971    0.0000 C   0  0  0  0  0  0  0  0  0  0  0  0
   -9.7500    3.8971    0.0000 C   0  0  0  0  0  0  0  0  0  0  0  0
  -10.5000    2.5981    0.0000 C   0  0  0  0  0  0  0  0  0  0  0  0
   -8.2500   -1.2990    0.0000 N   0  0  0  0  0  0  0  0  0  0  0  0
   -7.5000   -2.5981    0.0000 C   0  0  0  0  0  0  0  0  0  0  0  0
   -8.2500   -3.8971    0.0000 O   0  0  0  0  0  0  0  0  0  0  0  0
   -6.0000   -2.5981    0.0000 C   0  0  0  0  0  0  0  0  0  0  0  0
   -5.2500   -3.8971    0.0000 C   0  0  0  0  0  0  0  0  0  0  0  0
   -3.7500   -3.8971    0.0000 C   0  0  0  0  0  0  0  0  0  0  0  0
   -3.0000   -2.5981    0.0000 C   0  0  0  0  0  0  0  0  0  0  0  0
   -1.5000   -2.5981    0.0000 C   0  0  0  0  0  0  0  0  0  0  0  0
   -0.7500   -3.8971    0.0000 C   0  0  0  0  0  0  0  0  0  0  0  0
   -1.5000   -5.1962    0.0000 C   0  0  0  0  0  0  0  0  0  0  0  0
   -3.0000   -5.1962    0.0000 C   0  0  0  0  0  0  0  0  0  0  0  0
   -5.2500   -1.2990    0.0000 N   0  0  0  0  0  0  0  0  0  0  0  0
   -6.0000    0.0000    0.0000 C   0  0  0  0  0  0  0  0  0  0  0  0
   -7.5000    0.0000    0.0000 O   0  0  0  0  0  0  0  0  0  0  0  0
   -5.2500    1.2990    0.0000 C   0  0  0  0  0  0  0  0  0  0  0  0
   -6.0000    2.5981    0.0000 C   0  0  0  0  0  0  0  0  0  0  0  0
   -5.2500    3.8971    0.0000 C   0  0  0  0  0  0  0  0  0  0  0  0
   -3.7500    3.8971    0.0000 C   0  0  0  0  0  0  0  0  0  0  0  0
   -3.0000    5.1962    0.0000 C   0  0  0  0  0  0  0  0  0  0  0  0
   -3.7500    6.4952    0.0000 C   0  0  0  0  0  0  0  0  0  0  0  0
   -5.2500    6.4952    0.0000 C   0  0  0  0  0  0  0  0  0  0  0  0
   -6.0000    5.1962    0.0000 C   0  0  0  0  0  0  0  0  0  0  0  0
   -3.7500    1.2990    0.0000 N   0  0  0  0  0  0  0  0  0  0  0  0
   -3.0000    0.0000    0.0000 C   0  0  0  0  0  0  0  0  0  0  0  0
   -3.7500   -1.2990    0.0000 O   0  0  0  0  0  0  0  0  0  0  0  0
   -1.5000    0.0000    0.0000 C   0  0  0  0  0  0  0  0  0  0  0  0
   -0.7500   -1.2990    0.0000 C   0  0  0  0  0  0  0  0  0  0  0  0
    0.7500   -1.2990    0.0000 C   0  0  0  0  0  0  0  0  0  0  0  0
    1.5000    0.0000    0.0000 C   0  0  0  0  0  0  0  0  0  0  0  0
    3.0000    0.0000    0.0000 C   0  0  0  0  0  0  0  0  0  0  0  0
    3.7500   -1.2990    0.0000 C   0  0  0  0  0  0  0  0  0  0  0  0
    3.0000   -2.5981    0.0000 C   0  0  0  0  0  0  0  0  0  0  0  0
    1.5000   -2.5981    0.0000 C   0  0  0  0  0  0  0  0  0  0  0  0
   -0.7500    1.2990    0.0000 N   0  0  0  0  0  0  0  0  0  0  0  0
   -1.5000    2.5981    0.0000 C   0  0  0  0  0  0  0  0  0  0  0  0
   -3.0000    2.5981    0.0000 O   0  0  0  0  0  0  0  0  0  0  0  0
   -0.7500    3.8971    0.0000 C   0  0  0  0  0  0  0  0  0  0  0  0
   -1.5000    5.1962    0.0000 C   0  0  0  0  0  0  0  0  0  0  0  0
   -0.7500    6.4952    0.0000 C   0  0  0  0  0  0  0  0  0  0  0  0
    0.7500    6.4952    0.0000 C   0  0  0  0  0  0  0  0  0  0  0  0
    1.5000    7.7942    0.0000 C   0  0  0  0  0  0  0  0  0  0  0  0
    0.7500    9.0933    0.0000 C   0  0  0  0  0  0  0  0  0  0  0  0
   -0.7500    9.0933    0.0000 C   0  0  0  0  0  0  0  0  0  0  0  0
   -1.5000    7.7942    0.0000 C   0  0  0  0  0  0  0  0  0  0  0  0
    0.7500    3.8971    0.0000 N   0  0  0  0  0  0  0  0  0  0  0  0
    1.5000    2.5981    0.0000 C   0  0  0  0  0  0  0  0  0  0  0  0
    0.7500    1.2990    0.0000 O   0  0  0  0  0  0  0  0  0  0  0  0
    3.0000    2.5981    0.0000 C   0  0  0  0  0  0  0  0  0  0  0  0
    3.7500    1.2990    0.0000 C   0  0  0  0  0  0  0  0  0  0  0  0
    2.3797    0.6889    0.0000 C   0  0  0  0  0  0  0  0  0  0  0  0
    4.2135   -0.1275    0.0000 C   0  0  0  0  0  0  0  0  0  0  0  0
    5.7135   -0.1275    0.0000 C   0  0  0  0  0  0  0  0  0  0  0  0
    6.1771    1.2990    0.0000 C   0  0  0  0  0  0  0  0  0  0  0  0
    4.9635    2.1807    0.0000 C   0  0  0  0  0  0  0  0  0  0  0  0
    4.9635    3.6807    0.0000 C   0  0  0  0  0  0  0  0  0  0  0  0
    6.4635    3.6807    0.0000 C   0  0  0  0  0  0  0  0  0  0  0  0
    3.4635    3.6807    0.0000 C   0  0  0  0  0  0  0  0  0  0  0  0
    4.9635    5.1807    0.0000 C   0  0  0  0  0  0  0  0  0  0  0  0
  1  2  1  0
  2  3  1  0
  3  4  1  0
  4  5  2  0
  5  6  1  0
  6  7  2  0
  7  8  1  0
  8  9  2  0
  2 10  1  0
 10 11  1  0
 11 12  2  0
 11 13  1  0
 13 14  1  0
 14 15  1  0
 15 16  2  0
 16 17  1  0
 17 18  2  0
 18 19  1  0
 19 20  2  0
 13 21  1  0
 21 22  1  0
 22 23  2  0
 22 24  1  0
 24 25  1  0
 25 26  1  0
 26 27  2  0
 27 28  1  0
 28 29  2  0
 29 30  1  0
 30 31  2  0
 24 32  1  0
 32 33  1  0
 33 34  2  0
 33 35  1  0
 35 36  1  0
 36 37  1  0
 37 38  2  0
 38 39  1  0
 39 40  2  0
 40 41  1  0
 41 42  2  0
 35 43  1  0
 43 44  1  0
 44 45  2  0
 44 46  1  0
 46 47  1  0
 47 48  1  0
 48 49  2  0
 49 50  1  0
 50 51  2  0
 51 52  1  0
 52 53  2  0
 46 54  1  0
 54 55  1  0
 55 56  2  0
 55 57  1  0
 57 58  1  0
 58 59  1  0
 59 60  2  0
 60 61  1  0
 61 62  2  0
 62 63  1  0
 63 64  2  0
 57 65  1  0
 65 66  1  0
 66 67  2  0
 66 68  1  0
 68 69  1  0
 69 70  1  0
 69 71  1  0
 71 72  1  0
 72 73  1  0
 73 74  1  0
 74 75  1  0
 75 76  1  0
 75 77  1  0
 75 78  1  0
  9  4  1  0
 20 15  1  0
 31 26  1  0
 42 37  1  0
 53 48  1  0
 64 59  1  0
 74 69  1  0
M  END
>  <Title>  (77) 
idAACYgen7

$$$$

     RDKit          2D

 36 41  0  0  0  0  0  0  0  0999 V2000
   -4.7734    1.7567    0.0000 O   0  0  0  0  0  0  0  0  0  0  0  0
   -3.4031    2.3668    0.0000 C   0  0  0  0  0  0  0  0  0  0  0  0
   -3.2463    3.8586    0.0000 C   0  0  0  0  0  0  0  0  0  0  0  0
   -1.8760    4.4687    0.0000 C   0  0  0  0  0  0  0  0  0  0  0  0
   -1.7192    5.9604    0.0000 C   0  0  0  0  0  0  0  0  0  0  0  0
   -2.9327    6.8421    0.0000 C   0  0  0  0  0  0  0  0  0  0  0  0
   -2.7759    8.3339    0.0000 C   0  0  0  0  0  0  0  0  0  0  0  0
   -1.4056    8.9440    0.0000 C   0  0  0  0  0  0  0  0  0  0  0  0
   -1.2488   10.4358    0.0000 C   0  0  0  0  0  0  0  0  0  0  0  0
   -2.4623   11.3175    0.0000 C   0  0  0  0  0  0  0  0  0  0  0  0
   -3.8326   10.7074    0.0000 C   0  0  0  0  0  0  0  0  0  0  0  0
   -3.9894    9.2156    0.0000 N   0  0  0  0  0  0  0  0  0  0  0  0
   -4.3030    6.2320    0.0000 C   0  0  0  0  0  0  0  0  0  0  0  0
   -4.4598    4.7402    0.0000 C   0  0  0  0  0  0  0  0  0  0  0  0
   -2.1895    1.4851    0.0000 C   0  0  0  0  0  0  0  0  0  0  0  0
   -0.8192    2.0952    0.0000 C   0  0  0  0  0  0  0  0  0  0  0  0
    0.3943    1.2135    0.0000 C   0  0  0  0  0  0  0  0  0  0  0  0
    1.2760    0.0000    0.0000 C   0  0  0  0  0  0  0  0  0  0  0  0
    0.3943   -1.2135    0.0000 C   0  0  0  0  0  0  0  0  0  0  0  0
   -1.0323   -0.7500    0.0000 C   0  0  0  0  0  0  0  0  0  0  0  0
   -2.3463   -0.0067    0.0000 C   0  0  0  0  0  0  0  0  0  0  0  0
   -1.0323    0.7500    0.0000 N   0  0  0  0  0  0  0  0  0  0  0  0
   -2.2458    1.6317    0.0000 C   0  0  0  0  0  0  0  0  0  0  0  0
   -2.0890    3.1235    0.0000 C   0  0  0  0  0  0  0  0  0  0  0  0
   -3.3025    4.0051    0.0000 C   0  0  0  0  0  0  0  0  0  0  0  0
   -3.1458    5.4969    0.0000 C   0  0  0  0  0  0  0  0  0  0  0  0
   -4.3593    6.3786    0.0000 C   0  0  0  0  0  0  0  0  0  0  0  0
   -5.7296    5.7685    0.0000 C   0  0  0  0  0  0  0  0  0  0  0  0
   -6.9431    6.6502    0.0000 C   0  0  0  0  0  0  0  0  0  0  0  0
   -6.7863    8.1420    0.0000 C   0  0  0  0  0  0  0  0  0  0  0  0
   -7.9999    9.0236    0.0000 C   0  0  0  0  0  0  0  0  0  0  0  0
   -9.3702    8.4135    0.0000 C   0  0  0  0  0  0  0  0  0  0  0  0
   -9.5270    6.9217    0.0000 C   0  0  0  0  0  0  0  0  0  0  0  0
   -8.3134    6.0401    0.0000 N   0  0  0  0  0  0  0  0  0  0  0  0
   -5.8864    4.2767    0.0000 C   0  0  0  0  0  0  0  0  0  0  0  0
   -4.6729    3.3950    0.0000 C   0  0  0  0  0  0  0  0  0  0  0  0
  1  2  2  0
  2  3  1  0
  3  4  2  0
  4  5  1  0
  5  6  2  0
  6  7  1  0
  7  8  2  0
  8  9  1  0
  9 10  2  0
 10 11  1  0
 11 12  2  0
  6 13  1  0
 13 14  2  0
  2 15  1  0
 15 16  1  0
 16 17  1  0
 17 18  1  0
 18 19  1  0
 19 20  1  0
 20 21  1  0
 20 22  1  0
 22 23  1  0
 23 24  1  0
 24 25  1  0
 25 26  2  0
 26 27  1  0
 27 28  2  0
 28 29  1  0
 29 30  2  0
 30 31  1  0
 31 32  2  0
 32 33  1  0
 33 34  2  0
 28 35  1  0
 35 36  2  0
 14  3  1  0
 21 15  1  0
 36 25  1  0
 12  7  1  0
 22 17  1  0
 34 29  1  0
M  END
>  <Title>  (78) 
idAACZgen7

$$$$

     RDKit          2D

 60 65  0  0  0  0  0  0  0  0999 V2000
   -1.4033    6.9044    0.0000 C   0  0  0  0  0  0  0  0  0  0  0  0
   -2.7242    6.1936    0.0000 C   0  0  0  0  0  0  0  0  0  0  0  0
   -4.0451    5.4828    0.0000 C   0  0  0  0  0  0  0  0  0  0  0  0
   -3.4350    7.5145    0.0000 C   0  0  0  0  0  0  0  0  0  0  0  0
   -2.0134    4.8727    0.0000 N   0  0  0  0  0  0  0  0  0  0  0  0
   -2.8019    3.5967    0.0000 C   0  0  0  0  0  0  0  0  0  0  0  0
   -4.2675    3.2775    0.0000 O   0  0  0  0  0  0  0  0  0  0  0  0
   -2.0911    2.2758    0.0000 C   0  0  0  0  0  0  0  0  0  0  0  0
   -0.5926    2.3431    0.0000 C   0  0  0  0  0  0  0  0  0  0  0  0
    0.3943    1.2135    0.0000 C   0  0  0  0  0  0  0  0  0  0  0  0
    1.2760    0.0000    0.0000 C   0  0  0  0  0  0  0  0  0  0  0  0
    0.3943   -1.2135    0.0000 C   0  0  0  0  0  0  0  0  0  0  0  0
   -1.0323   -0.7500    0.0000 C   0  0  0  0  0  0  0  0  0  0  0  0
   -2.5737   -0.3836    0.0000 C   0  0  0  0  0  0  0  0  0  0  0  0
   -2.9728    1.0623    0.0000 C   0  0  0  0  0  0  0  0  0  0  0  0
   -4.4487    1.3301    0.0000 C   0  0  0  0  0  0  0  0  0  0  0  0
   -5.2813    2.5778    0.0000 O   0  0  0  0  0  0  0  0  0  0  0  0
   -5.4186    0.1859    0.0000 N   0  0  0  0  0  0  0  0  0  0  0  0
   -6.8945    0.4537    0.0000 C   0  0  0  0  0  0  0  0  0  0  0  0
   -7.8644   -0.6905    0.0000 C   0  0  0  0  0  0  0  0  0  0  0  0
   -9.3403   -0.4227    0.0000 C   0  0  0  0  0  0  0  0  0  0  0  0
   -9.8463    0.9894    0.0000 C   0  0  0  0  0  0  0  0  0  0  0  0
  -11.3221    1.2572    0.0000 C   0  0  0  0  0  0  0  0  0  0  0  0
  -12.2920    0.1130    0.0000 C   0  0  0  0  0  0  0  0  0  0  0  0
  -11.7861   -1.2991    0.0000 C   0  0  0  0  0  0  0  0  0  0  0  0
  -10.3102   -1.5669    0.0000 C   0  0  0  0  0  0  0  0  0  0  0  0
   -7.4005    1.8658    0.0000 C   0  0  0  0  0  0  0  0  0  0  0  0
   -6.4306    3.0101    0.0000 O   0  0  0  0  0  0  0  0  0  0  0  0
   -8.8764    2.1337    0.0000 N   0  0  0  0  0  0  0  0  0  0  0  0
   -9.3823    3.5457    0.0000 C   0  0  0  0  0  0  0  0  0  0  0  0
  -10.8582    3.8136    0.0000 C   0  0  0  0  0  0  0  0  0  0  0  0
  -11.3642    5.2256    0.0000 C   0  0  0  0  0  0  0  0  0  0  0  0
  -10.3943    6.3699    0.0000 C   0  0  0  0  0  0  0  0  0  0  0  0
  -10.9003    7.7820    0.0000 C   0  0  0  0  0  0  0  0  0  0  0  0
  -12.3762    8.0498    0.0000 C   0  0  0  0  0  0  0  0  0  0  0  0
  -13.3461    6.9056    0.0000 C   0  0  0  0  0  0  0  0  0  0  0  0
  -12.8401    5.4935    0.0000 C   0  0  0  0  0  0  0  0  0  0  0  0
   -8.4125    4.6900    0.0000 C   0  0  0  0  0  0  0  0  0  0  0  0
   -6.9366    4.4221    0.0000 O   0  0  0  0  0  0  0  0  0  0  0  0
   -8.9184    6.1021    0.0000 N   0  0  0  0  0  0  0  0  0  0  0  0
   -7.9485    7.2463    0.0000 C   0  0  0  0  0  0  0  0  0  0  0  0
   -8.4545    8.6584    0.0000 C   0  0  0  0  0  0  0  0  0  0  0  0
   -7.4846    9.8026    0.0000 C   0  0  0  0  0  0  0  0  0  0  0  0
   -6.0087    9.5348    0.0000 C   0  0  0  0  0  0  0  0  0  0  0  0
   -5.0388   10.6790    0.0000 C   0  0  0  0  0  0  0  0  0  0  0  0
   -5.5448   12.0911    0.0000 C   0  0  0  0  0  0  0  0  0  0  0  0
   -7.0207   12.3589    0.0000 C   0  0  0  0  0  0  0  0  0  0  0  0
   -7.9906   11.2147    0.0000 C   0  0  0  0  0  0  0  0  0  0  0  0
   -6.4727    6.9785    0.0000 C   0  0  0  0  0  0  0  0  0  0  0  0
   -6.3234    5.4859    0.0000 O   0  0  0  0  0  0  0  0  0  0  0  0
   -5.5028    8.1227    0.0000 O   0  0  0  0  0  0  0  0  0  0  0  0
   -1.0323    0.7500    0.0000 C   0  0  0  0  0  0  0  0  0  0  0  0
   -2.2458    1.6317    0.0000 C   0  0  0  0  0  0  0  0  0  0  0  0
   -2.0890    3.1235    0.0000 C   0  0  0  0  0  0  0  0  0  0  0  0
   -3.3025    4.0051    0.0000 C   0  0  0  0  0  0  0  0  0  0  0  0
   -3.1458    5.4969    0.0000 C   0  0  0  0  0  0  0  0  0  0  0  0
   -4.3593    6.3786    0.0000 C   0  0  0  0  0  0  0  0  0  0  0  0
   -5.7296    5.7685    0.0000 C   0  0  0  0  0  0  0  0  0  0  0  0
   -5.8864    4.2767    0.0000 C   0  0  0  0  0  0  0  0  0  0  0  0
   -4.6729    3.3950    0.0000 C   0  0  0  0  0  0  0  0  0  0  0  0
  1  2  1  0
  2  3  1  0
  2  4  1  0
  2  5  1  0
  5  6  1  0
  6  7  2  0
  6  8  1  0
  8  9  1  0
  9 10  1  0
 10 11  1  0
 11 12  1  0
 12 13  1  0
 13 14  1  0
 14 15  1  0
 15 16  1  0
 16 17  2  0
 16 18  1  0
 18 19  1  0
 19 20  1  0
 20 21  1  0
 21 22  2  0
 22 23  1  0
 23 24  2  0
 24 25  1  0
 25 26  2  0
 19 27  1  0
 27 28  2  0
 27 29  1  0
 29 30  1  0
 30 31  1  0
 31 32  1  0
 32 33  2  0
 33 34  1  0
 34 35  2  0
 35 36  1  0
 36 37  2  0
 30 38  1  0
 38 39  2  0
 38 40  1  0
 40 41  1  0
 41 42  1  0
 42 43  1  0
 43 44  2  0
 44 45  1  0
 45 46  2  0
 46 47  1  0
 47 48  2  0
 41 49  1  0
 49 50  2  0
 49 51  1  0
 13 52  1  0
 52 53  1  0
 53 54  1  0
 54 55  1  0
 55 56  2  0
 56 57  1  0
 57 58  2  0
 58 59  1  0
 59 60  2  0
 15  8  1  0
 26 21  1  0
 37 32  1  0
 48 43  1  0
 60 55  1  0
 52 10  1  0
M  END
>  <Title>  (79) 
idAADAgen7

$$$$

     RDKit          2D

 52 58  0  0  0  0  0  0  0  0999 V2000
   -0.7500   -3.8971    0.0000 O   0  0  0  0  0  0  0  0  0  0  0  0
    0.7500   -3.8971    0.0000 C   0  0  0  0  0  0  0  0  0  0  0  0
    1.5000   -5.1962    0.0000 N   0  0  0  0  0  0  0  0  0  0  0  0
    0.7500   -6.4952    0.0000 C   0  0  0  0  0  0  0  0  0  0  0  0
    1.5000   -7.7942    0.0000 C   0  0  0  0  0  0  0  0  0  0  0  0
    2.9095   -7.2812    0.0000 C   0  0  0  0  0  0  0  0  0  0  0  0
    4.0586   -8.2454    0.0000 C   0  0  0  0  0  0  0  0  0  0  0  0
    5.4681   -7.7323    0.0000 C   0  0  0  0  0  0  0  0  0  0  0  0
    5.7286   -6.2551    0.0000 C   0  0  0  0  0  0  0  0  0  0  0  0
    4.5796   -5.2910    0.0000 C   0  0  0  0  0  0  0  0  0  0  0  0
    3.1700   -5.8040    0.0000 C   0  0  0  0  0  0  0  0  0  0  0  0
    1.7605   -9.2714    0.0000 C   0  0  0  0  0  0  0  0  0  0  0  0
    0.3509   -8.7584    0.0000 C   0  0  0  0  0  0  0  0  0  0  0  0
    1.5000   -2.5981    0.0000 N   0  0  0  0  0  0  0  0  0  0  0  0
    0.7500   -1.2990    0.0000 C   0  0  0  0  0  0  0  0  0  0  0  0
    1.5000    0.0000    0.0000 C   0  0  0  0  0  0  0  0  0  0  0  0
    0.7500    1.2990    0.0000 C   0  0  0  0  0  0  0  0  0  0  0  0
   -0.7500    1.2990    0.0000 C   0  0  0  0  0  0  0  0  0  0  0  0
   -1.5000    0.0000    0.0000 C   0  0  0  0  0  0  0  0  0  0  0  0
   -0.7500   -1.2990    0.0000 C   0  0  0  0  0  0  0  0  0  0  0  0
   -1.8119    1.4672    0.0000 C   0  0  0  0  0  0  0  0  0  0  0  0
   -3.1822    2.0773    0.0000 C   0  0  0  0  0  0  0  0  0  0  0  0
   -4.4812    1.3273    0.0000 C   0  0  0  0  0  0  0  0  0  0  0  0
   -5.5959    2.3310    0.0000 C   0  0  0  0  0  0  0  0  0  0  0  0
   -4.9858    3.7013    0.0000 C   0  0  0  0  0  0  0  0  0  0  0  0
   -3.4941    3.5445    0.0000 C   0  0  0  0  0  0  0  0  0  0  0  0
   -0.5128    2.2172    0.0000 C   0  0  0  0  0  0  0  0  0  0  0  0
   -0.3560    3.7090    0.0000 C   0  0  0  0  0  0  0  0  0  0  0  0
   -1.5696    4.5907    0.0000 O   0  0  0  0  0  0  0  0  0  0  0  0
    1.0143    4.3191    0.0000 N   0  0  0  0  0  0  0  0  0  0  0  0
    1.1711    5.8109    0.0000 C   0  0  0  0  0  0  0  0  0  0  0  0
    2.5414    6.4210    0.0000 C   0  0  0  0  0  0  0  0  0  0  0  0
    2.6982    7.9128    0.0000 C   0  0  0  0  0  0  0  0  0  0  0  0
    4.0685    8.5229    0.0000 C   0  0  0  0  0  0  0  0  0  0  0  0
    4.2253   10.0147    0.0000 C   0  0  0  0  0  0  0  0  0  0  0  0
    3.0118   10.8963    0.0000 C   0  0  0  0  0  0  0  0  0  0  0  0
    1.6415   10.2862    0.0000 C   0  0  0  0  0  0  0  0  0  0  0  0
    1.4847    8.7945    0.0000 C   0  0  0  0  0  0  0  0  0  0  0  0
   -0.0425    6.6926    0.0000 C   0  0  0  0  0  0  0  0  0  0  0  0
   -1.4128    6.0825    0.0000 O   0  0  0  0  0  0  0  0  0  0  0  0
    0.1143    8.1844    0.0000 N   0  0  0  0  0  0  0  0  0  0  0  0
   -1.0992    9.0660    0.0000 C   0  0  0  0  0  0  0  0  0  0  0  0
   -0.9424   10.5578    0.0000 C   0  0  0  0  0  0  0  0  0  0  0  0
   -2.1559   11.4395    0.0000 C   0  0  0  0  0  0  0  0  0  0  0  0
   -1.9991   12.9313    0.0000 C   0  0  0  0  0  0  0  0  0  0  0  0
   -3.2126   13.8130    0.0000 C   0  0  0  0  0  0  0  0  0  0  0  0
   -4.5830   13.2028    0.0000 C   0  0  0  0  0  0  0  0  0  0  0  0
   -4.7398   11.7111    0.0000 C   0  0  0  0  0  0  0  0  0  0  0  0
   -3.5262   10.8294    0.0000 C   0  0  0  0  0  0  0  0  0  0  0  0
   -2.4695    8.4559    0.0000 C   0  0  0  0  0  0  0  0  0  0  0  0
   -2.6263    6.9641    0.0000 O   0  0  0  0  0  0  0  0  0  0  0  0
   -3.6830    9.3376    0.0000 O   0  0  0  0  0  0  0  0  0  0  0  0
  1  2  2  0
  2  3  1  0
  3  4  1  0
  4  5  1  0
  5  6  1  0
  6  7  2  0
  7  8  1  0
  8  9  2  0
  9 10  1  0
 10 11  2  0
  5 12  1  0
 12 13  1  0
  2 14  1  0
 14 15  1  0
 15 16  1  0
 16 17  1  0
 17 18  1  0
 18 19  1  0
 19 20  1  0
 19 21  1  0
 21 22  1  0
 22 23  1  0
 23 24  1  0
 24 25  1  0
 25 26  1  0
 21 27  1  0
 27 28  1  0
 28 29  2  0
 28 30  1  0
 30 31  1  0
 31 32  1  0
 32 33  1  0
 33 34  2  0
 34 35  1  0
 35 36  2  0
 36 37  1  0
 37 38  2  0
 31 39  1  0
 39 40  2  0
 39 41  1  0
 41 42  1  0
 42 43  1  0
 43 44  1  0
 44 45  2  0
 45 46  1  0
 46 47  2  0
 47 48  1  0
 48 49  2  0
 42 50  1  0
 50 51  2  0
 50 52  1  0
 13  5  1  0
 20 15  1  0
 26 22  1  0
 38 33  1  0
 49 44  1  0
 11  6  1  0
 27 17  1  0
M  END
>  <Title>  (80) 
idAADBgen7

$$$$

     RDKit          2D

 68 74  0  0  0  0  0  0  0  0999 V2000
   -3.4140    4.5616    0.0000 C   0  0  0  0  0  0  0  0  0  0  0  0
   -1.9140    4.5616    0.0000 N   0  0  0  0  0  0  0  0  0  0  0  0
   -1.1640    3.2626    0.0000 C   0  0  0  0  0  0  0  0  0  0  0  0
   -1.9140    1.9635    0.0000 O   0  0  0  0  0  0  0  0  0  0  0  0
    0.3360    3.2626    0.0000 C   0  0  0  0  0  0  0  0  0  0  0  0
    1.0860    1.9635    0.0000 C   0  0  0  0  0  0  0  0  0  0  0  0
    0.3360    0.6645    0.0000 C   0  0  0  0  0  0  0  0  0  0  0  0
   -1.1640    0.6645    0.0000 C   0  0  0  0  0  0  0  0  0  0  0  0
   -1.9140   -0.6346    0.0000 C   0  0  0  0  0  0  0  0  0  0  0  0
   -1.1640   -1.9336    0.0000 C   0  0  0  0  0  0  0  0  0  0  0  0
    0.3360   -1.9336    0.0000 C   0  0  0  0  0  0  0  0  0  0  0  0
    1.0860   -0.6346    0.0000 C   0  0  0  0  0  0  0  0  0  0  0  0
    1.0860    4.5616    0.0000 N   0  0  0  0  0  0  0  0  0  0  0  0
    0.3360    5.8606    0.0000 C   0  0  0  0  0  0  0  0  0  0  0  0
   -1.1640    5.8606    0.0000 O   0  0  0  0  0  0  0  0  0  0  0  0
    1.0860    7.1597    0.0000 C   0  0  0  0  0  0  0  0  0  0  0  0
    2.5860    7.1597    0.0000 C   0  0  0  0  0  0  0  0  0  0  0  0
    3.3360    5.8606    0.0000 C   0  0  0  0  0  0  0  0  0  0  0  0
    2.5860    4.5616    0.0000 C   0  0  0  0  0  0  0  0  0  0  0  0
    3.3360    3.2626    0.0000 C   0  0  0  0  0  0  0  0  0  0  0  0
    4.8360    3.2626    0.0000 C   0  0  0  0  0  0  0  0  0  0  0  0
    5.5860    4.5616    0.0000 C   0  0  0  0  0  0  0  0  0  0  0  0
    4.8360    5.8606    0.0000 C   0  0  0  0  0  0  0  0  0  0  0  0
    0.3360    8.4587    0.0000 N   0  0  0  0  0  0  0  0  0  0  0  0
   -1.1640    8.4587    0.0000 C   0  0  0  0  0  0  0  0  0  0  0  0
   -1.9140    7.1597    0.0000 O   0  0  0  0  0  0  0  0  0  0  0  0
   -1.9140    9.7578    0.0000 C   0  0  0  0  0  0  0  0  0  0  0  0
   -1.1640   11.0568    0.0000 C   0  0  0  0  0  0  0  0  0  0  0  0
    0.3360   11.0568    0.0000 C   0  0  0  0  0  0  0  0  0  0  0  0
    1.0860    9.7578    0.0000 C   0  0  0  0  0  0  0  0  0  0  0  0
    2.5860    9.7578    0.0000 C   0  0  0  0  0  0  0  0  0  0  0  0
    3.3360   11.0568    0.0000 C   0  0  0  0  0  0  0  0  0  0  0  0
    2.5860   12.3558    0.0000 C   0  0  0  0  0  0  0  0  0  0  0  0
    1.0860   12.3558    0.0000 C   0  0  0  0  0  0  0  0  0  0  0  0
   -3.4140    9.7578    0.0000 N   0  0  0  0  0  0  0  0  0  0  0  0
   -4.1640    8.4587    0.0000 C   0  0  0  0  0  0  0  0  0  0  0  0
   -3.4140    7.1597    0.0000 O   0  0  0  0  0  0  0  0  0  0  0  0
   -5.6640    8.4587    0.0000 C   0  0  0  0  0  0  0  0  0  0  0  0
   -6.4140    9.7578    0.0000 C   0  0  0  0  0  0  0  0  0  0  0  0
   -5.6640   11.0568    0.0000 C   0  0  0  0  0  0  0  0  0  0  0  0
   -4.1640   11.0568    0.0000 C   0  0  0  0  0  0  0  0  0  0  0  0
   -3.4140   12.3558    0.0000 C   0  0  0  0  0  0  0  0  0  0  0  0
   -4.1640   13.6549    0.0000 C   0  0  0  0  0  0  0  0  0  0  0  0
   -5.6640   13.6549    0.0000 C   0  0  0  0  0  0  0  0  0  0  0  0
   -6.4140   12.3558    0.0000 C   0  0  0  0  0  0  0  0  0  0  0  0
   -6.4140    7.1597    0.0000 N   0  0  0  0  0  0  0  0  0  0  0  0
   -5.6640    5.8606    0.0000 C   0  0  0  0  0  0  0  0  0  0  0  0
   -4.1640    5.8606    0.0000 O   0  0  0  0  0  0  0  0  0  0  0  0
   -6.4140    4.5616    0.0000 C   0  0  0  0  0  0  0  0  0  0  0  0
   -7.9140    4.5616    0.0000 C   0  0  0  0  0  0  0  0  0  0  0  0
   -8.6640    5.8606    0.0000 C   0  0  0  0  0  0  0  0  0  0  0  0
   -7.9140    7.1597    0.0000 C   0  0  0  0  0  0  0  0  0  0  0  0
   -8.6640    8.4587    0.0000 C   0  0  0  0  0  0  0  0  0  0  0  0
  -10.1640    8.4587    0.0000 C   0  0  0  0  0  0  0  0  0  0  0  0
  -10.9140    7.1597    0.0000 C   0  0  0  0  0  0  0  0  0  0  0  0
  -10.1640    5.8606    0.0000 C   0  0  0  0  0  0  0  0  0  0  0  0
   -5.6640    3.2626    0.0000 N   0  0  0  0  0  0  0  0  0  0  0  0
   -6.4140    1.9635    0.0000 C   0  0  0  0  0  0  0  0  0  0  0  0
   -7.9140    1.9635    0.0000 O   0  0  0  0  0  0  0  0  0  0  0  0
   -5.6640    0.6645    0.0000 O   0  0  0  0  0  0  0  0  0  0  0  0
   -6.4140   -0.6346    0.0000 C   0  0  0  0  0  0  0  0  0  0  0  0
   -7.9057   -0.7913    0.0000 C   0  0  0  0  0  0  0  0  0  0  0  0
   -8.2176   -2.2586    0.0000 O   0  0  0  0  0  0  0  0  0  0  0  0
   -6.9186   -3.0086    0.0000 C   0  0  0  0  0  0  0  0  0  0  0  0
   -6.3085   -4.3789    0.0000 O   0  0  0  0  0  0  0  0  0  0  0  0
   -4.8167   -4.2221    0.0000 C   0  0  0  0  0  0  0  0  0  0  0  0
   -4.5048   -2.7549    0.0000 C   0  0  0  0  0  0  0  0  0  0  0  0
   -5.8039   -2.0049    0.0000 C   0  0  0  0  0  0  0  0  0  0  0  0
  1  2  1  0
  2  3  1  0
  3  4  2  0
  3  5  1  0
  5  6  1  0
  6  7  1  0
  7  8  2  0
  8  9  1  0
  9 10  2  0
 10 11  1  0
 11 12  2  0
  5 13  1  0
 13 14  1  0
 14 15  2  0
 14 16  1  0
 16 17  1  0
 17 18  1  0
 18 19  2  0
 19 20  1  0
 20 21  2  0
 21 22  1  0
 22 23  2  0
 16 24  1  0
 24 25  1  0
 25 26  2  0
 25 27  1  0
 27 28  1  0
 28 29  1  0
 29 30  2  0
 30 31  1  0
 31 32  2  0
 32 33  1  0
 33 34  2  0
 27 35  1  0
 35 36  1  0
 36 37  2  0
 36 38  1  0
 38 39  1  0
 39 40  1  0
 40 41  2  0
 41 42  1  0
 42 43  2  0
 43 44  1  0
 44 45  2  0
 38 46  1  0
 46 47  1  0
 47 48  2  0
 47 49  1  0
 49 50  1  0
 50 51  1  0
 51 52  2  0
 52 53  1  0
 53 54  2  0
 54 55  1  0
 55 56  2  0
 49 57  1  0
 57 58  1  0
 58 59  2  0
 58 60  1  0
 60 61  1  0
 61 62  1  0
 62 63  1  0
 63 64  1  0
 64 65  1  0
 65 66  1  0
 66 67  1  0
 67 68  1  0
 12  7  1  0
 23 18  1  0
 34 29  1  0
 45 40  1  0
 56 51  1  0
 68 61  1  0
 68 64  1  0
M  END
>  <Title>  (81) 
idAADCgen7

$$$$

     RDKit          2D

 68 75  0  0  0  0  0  0  0  0999 V2000
   -0.7500   -3.8971    0.0000 O   0  0  0  0  0  0  0  0  0  0  0  0
    0.7500   -3.8971    0.0000 C   0  0  0  0  0  0  0  0  0  0  0  0
    1.5000   -5.1962    0.0000 N   0  0  0  0  0  0  0  0  0  0  0  0
    0.7500   -6.4952    0.0000 C   0  0  0  0  0  0  0  0  0  0  0  0
    1.5000   -7.7942    0.0000 C   0  0  0  0  0  0  0  0  0  0  0  0
    2.9095   -7.2812    0.0000 C   0  0  0  0  0  0  0  0  0  0  0  0
    4.0586   -8.2454    0.0000 C   0  0  0  0  0  0  0  0  0  0  0  0
    5.4681   -7.7323    0.0000 C   0  0  0  0  0  0  0  0  0  0  0  0
    5.7286   -6.2551    0.0000 C   0  0  0  0  0  0  0  0  0  0  0  0
    4.5796   -5.2910    0.0000 C   0  0  0  0  0  0  0  0  0  0  0  0
    3.1700   -5.8040    0.0000 N   0  0  0  0  0  0  0  0  0  0  0  0
    1.7605   -9.2714    0.0000 C   0  0  0  0  0  0  0  0  0  0  0  0
    0.3509   -8.7584    0.0000 C   0  0  0  0  0  0  0  0  0  0  0  0
    1.5000   -2.5981    0.0000 N   0  0  0  0  0  0  0  0  0  0  0  0
    0.7500   -1.2990    0.0000 C   0  0  0  0  0  0  0  0  0  0  0  0
    1.5000    0.0000    0.0000 C   0  0  0  0  0  0  0  0  0  0  0  0
    0.7500    1.2990    0.0000 C   0  0  0  0  0  0  0  0  0  0  0  0
   -0.7500    1.2990    0.0000 C   0  0  0  0  0  0  0  0  0  0  0  0
   -1.5000    0.0000    0.0000 C   0  0  0  0  0  0  0  0  0  0  0  0
   -0.7500   -1.2990    0.0000 C   0  0  0  0  0  0  0  0  0  0  0  0
   -0.0000   -0.0000    0.0000 C   0  0  0  0  0  0  0  0  0  0  0  0
    0.7500   -1.2990    0.0000 C   0  0  0  0  0  0  0  0  0  0  0  0
    2.2500   -1.2990    0.0000 O   0  0  0  0  0  0  0  0  0  0  0  0
   -0.0000   -2.5981    0.0000 N   0  0  0  0  0  0  0  0  0  0  0  0
    0.7500   -3.8971    0.0000 C   0  0  0  0  0  0  0  0  0  0  0  0
   -0.0000   -5.1962    0.0000 C   0  0  0  0  0  0  0  0  0  0  0  0
    0.7500   -6.4952    0.0000 C   0  0  0  0  0  0  0  0  0  0  0  0
   -0.0000   -7.7942    0.0000 C   0  0  0  0  0  0  0  0  0  0  0  0
    0.7500   -9.0933    0.0000 C   0  0  0  0  0  0  0  0  0  0  0  0
    2.2500   -9.0933    0.0000 C   0  0  0  0  0  0  0  0  0  0  0  0
    3.0000   -7.7942    0.0000 C   0  0  0  0  0  0  0  0  0  0  0  0
    2.2500   -6.4952    0.0000 C   0  0  0  0  0  0  0  0  0  0  0  0
    2.2500   -3.8971    0.0000 C   0  0  0  0  0  0  0  0  0  0  0  0
    3.0000   -2.5981    0.0000 O   0  0  0  0  0  0  0  0  0  0  0  0
    3.0000   -5.1962    0.0000 N   0  0  0  0  0  0  0  0  0  0  0  0
    4.5000   -5.1962    0.0000 C   0  0  0  0  0  0  0  0  0  0  0  0
    5.2500   -6.4952    0.0000 C   0  0  0  0  0  0  0  0  0  0  0  0
    6.7500   -6.4952    0.0000 C   0  0  0  0  0  0  0  0  0  0  0  0
    7.5000   -7.7942    0.0000 C   0  0  0  0  0  0  0  0  0  0  0  0
    9.0000   -7.7942    0.0000 C   0  0  0  0  0  0  0  0  0  0  0  0
    9.7500   -6.4952    0.0000 C   0  0  0  0  0  0  0  0  0  0  0  0
    9.0000   -5.1962    0.0000 C   0  0  0  0  0  0  0  0  0  0  0  0
    7.5000   -5.1962    0.0000 C   0  0  0  0  0  0  0  0  0  0  0  0
    5.2500   -3.8971    0.0000 C   0  0  0  0  0  0  0  0  0  0  0  0
    4.5000   -2.5981    0.0000 O   0  0  0  0  0  0  0  0  0  0  0  0
    6.7500   -3.8971    0.0000 N   0  0  0  0  0  0  0  0  0  0  0  0
    7.5000   -2.5981    0.0000 C   0  0  0  0  0  0  0  0  0  0  0  0
    9.0000   -2.5981    0.0000 C   0  0  0  0  0  0  0  0  0  0  0  0
    9.7500   -1.2990    0.0000 C   0  0  0  0  0  0  0  0  0  0  0  0
   11.2500   -1.2990    0.0000 C   0  0  0  0  0  0  0  0  0  0  0  0
   12.0000   -0.0000    0.0000 C   0  0  0  0  0  0  0  0  0  0  0  0
   11.2500    1.2990    0.0000 C   0  0  0  0  0  0  0  0  0  0  0  0
    9.7500    1.2990    0.0000 C   0  0  0  0  0  0  0  0  0  0  0  0
    9.0000   -0.0000    0.0000 C   0  0  0  0  0  0  0  0  0  0  0  0
    6.7500   -1.2990    0.0000 C   0  0  0  0  0  0  0  0  0  0  0  0
    5.2500   -1.2990    0.0000 O   0  0  0  0  0  0  0  0  0  0  0  0
    7.5000   -0.0000    0.0000 N   0  0  0  0  0  0  0  0  0  0  0  0
    6.7500    1.2990    0.0000 C   0  0  0  0  0  0  0  0  0  0  0  0
    7.5000    2.5981    0.0000 C   0  0  0  0  0  0  0  0  0  0  0  0
    6.7500    3.8971    0.0000 C   0  0  0  0  0  0  0  0  0  0  0  0
    7.5000    5.1962    0.0000 C   0  0  0  0  0  0  0  0  0  0  0  0
    6.7500    6.4952    0.0000 C   0  0  0  0  0  0  0  0  0  0  0  0
    5.2500    6.4952    0.0000 C   0  0  0  0  0  0  0  0  0  0  0  0
    4.5000    5.1962    0.0000 C   0  0  0  0  0  0  0  0  0  0  0  0
    5.2500    3.8971    0.0000 C   0  0  0  0  0  0  0  0  0  0  0  0
    5.2500    1.2990    0.0000 C   0  0  0  0  0  0  0  0  0  0  0  0
    4.5000   -0.0000    0.0000 O   0  0  0  0  0  0  0  0  0  0  0  0
    4.5000    2.5981    0.0000 O   0  0  0  0  0  0  0  0  0  0  0  0
  1  2  2  0
  2  3  1  0
  3  4  1  0
  4  5  1  0
  5  6  1  0
  6  7  2  0
  7  8  1  0
  8  9  2  0
  9 10  1  0
 10 11  2  0
  5 12  1  0
 12 13  1  0
  2 14  1  0
 14 15  1  0
 15 16  1  0
 16 17  1  0
 17 18  1  0
 18 19  1  0
 19 20  1  0
 19 21  1  0
 21 22  1  0
 22 23  2  0
 22 24  1  0
 24 25  1  0
 25 26  1  0
 26 27  1  0
 27 28  2  0
 28 29  1  0
 29 30  2  0
 30 31  1  0
 31 32  2  0
 25 33  1  0
 33 34  2  0
 33 35  1  0
 35 36  1  0
 36 37  1  0
 37 38  1  0
 38 39  2  0
 39 40  1  0
 40 41  2  0
 41 42  1  0
 42 43  2  0
 36 44  1  0
 44 45  2  0
 44 46  1  0
 46 47  1  0
 47 48  1  0
 48 49  1  0
 49 50  2  0
 50 51  1  0
 51 52  2  0
 52 53  1  0
 53 54  2  0
 47 55  1  0
 55 56  2  0
 55 57  1  0
 57 58  1  0
 58 59  1  0
 59 60  1  0
 60 61  2  0
 61 62  1  0
 62 63  2  0
 63 64  1  0
 64 65  2  0
 58 66  1  0
 66 67  2  0
 66 68  1  0
 13  5  1  0
 20 15  1  0
 32 27  1  0
 43 38  1  0
 54 49  1  0
 65 60  1  0
 11  6  1  0
 21 17  1  0
M  END
>  <Title>  (82) 
idAADDgen7

$$$$

     RDKit          2D

 54 58  0  0  0  0  0  0  0  0999 V2000
   -7.9140   11.2578    0.0000 C   0  0  0  0  0  0  0  0  0  0  0  0
   -7.9140    9.7578    0.0000 C   0  0  0  0  0  0  0  0  0  0  0  0
   -7.9140    8.2578    0.0000 C   0  0  0  0  0  0  0  0  0  0  0  0
   -9.4140    9.7578    0.0000 C   0  0  0  0  0  0  0  0  0  0  0  0
   -6.4140    9.7578    0.0000 C   0  0  0  0  0  0  0  0  0  0  0  0
   -5.6640    8.4587    0.0000 C   0  0  0  0  0  0  0  0  0  0  0  0
   -6.4140    7.1597    0.0000 N   0  0  0  0  0  0  0  0  0  0  0  0
   -5.6640    5.8606    0.0000 C   0  0  0  0  0  0  0  0  0  0  0  0
   -4.1640    5.8606    0.0000 O   0  0  0  0  0  0  0  0  0  0  0  0
   -6.4140    4.5616    0.0000 C   0  0  0  0  0  0  0  0  0  0  0  0
   -7.9140    4.5616    0.0000 C   0  0  0  0  0  0  0  0  0  0  0  0
   -8.6640    5.8606    0.0000 C   0  0  0  0  0  0  0  0  0  0  0  0
   -7.9140    7.1597    0.0000 C   0  0  0  0  0  0  0  0  0  0  0  0
   -8.6640    8.4587    0.0000 C   0  0  0  0  0  0  0  0  0  0  0  0
  -10.1640    8.4587    0.0000 C   0  0  0  0  0  0  0  0  0  0  0  0
  -10.9140    7.1597    0.0000 C   0  0  0  0  0  0  0  0  0  0  0  0
  -10.1640    5.8606    0.0000 C   0  0  0  0  0  0  0  0  0  0  0  0
   -5.6640    3.2626    0.0000 N   0  0  0  0  0  0  0  0  0  0  0  0
   -4.1640    3.2626    0.0000 C   0  0  0  0  0  0  0  0  0  0  0  0
   -3.4140    4.5616    0.0000 O   0  0  0  0  0  0  0  0  0  0  0  0
   -3.4140    1.9635    0.0000 O   0  0  0  0  0  0  0  0  0  0  0  0
   -1.9140    1.9635    0.0000 C   0  0  0  0  0  0  0  0  0  0  0  0
   -1.0323    3.1771    0.0000 C   0  0  0  0  0  0  0  0  0  0  0  0
    0.3943    2.7135    0.0000 O   0  0  0  0  0  0  0  0  0  0  0  0
    0.3943    1.2135    0.0000 C   0  0  0  0  0  0  0  0  0  0  0  0
    1.2760    0.0000    0.0000 O   0  0  0  0  0  0  0  0  0  0  0  0
    0.3943   -1.2135    0.0000 C   0  0  0  0  0  0  0  0  0  0  0  0
   -1.0323   -0.7500    0.0000 C   0  0  0  0  0  0  0  0  0  0  0  0
   -1.0323    0.7500    0.0000 C   0  0  0  0  0  0  0  0  0  0  0  0
   -4.1640    8.4587    0.0000 S   0  0  0  0  0  0  0  0  0  0  0  0
   -4.1640    9.9587    0.0000 O   0  0  0  0  0  0  0  0  0  0  0  0
   -4.1640    6.9587    0.0000 O   0  0  0  0  0  0  0  0  0  0  0  0
   -2.6640    8.4587    0.0000 C   0  0  0  0  0  0  0  0  0  0  0  0
   -1.9140    9.7578    0.0000 C   0  0  0  0  0  0  0  0  0  0  0  0
   -0.4140    9.7578    0.0000 C   0  0  0  0  0  0  0  0  0  0  0  0
    0.3360    8.4587    0.0000 C   0  0  0  0  0  0  0  0  0  0  0  0
    1.8360    8.4587    0.0000 N   0  0  0  0  0  0  0  0  0  0  0  0
    2.5860    9.7578    0.0000 C   0  0  0  0  0  0  0  0  0  0  0  0
    1.8360   11.0568    0.0000 O   0  0  0  0  0  0  0  0  0  0  0  0
    4.0860    9.7578    0.0000 C   0  0  0  0  0  0  0  0  0  0  0  0
    4.8360    8.4587    0.0000 O   0  0  0  0  0  0  0  0  0  0  0  0
    4.8360   11.0568    0.0000 C   0  0  0  0  0  0  0  0  0  0  0  0
    6.3360   11.0568    0.0000 C   0  0  0  0  0  0  0  0  0  0  0  0
    7.0860   12.3558    0.0000 C   0  0  0  0  0  0  0  0  0  0  0  0
    6.3360   13.6549    0.0000 C   0  0  0  0  0  0  0  0  0  0  0  0
    7.0860   14.9539    0.0000 C   0  0  0  0  0  0  0  0  0  0  0  0
    8.5860   14.9539    0.0000 C   0  0  0  0  0  0  0  0  0  0  0  0
    9.3360   13.6549    0.0000 C   0  0  0  0  0  0  0  0  0  0  0  0
    8.5860   12.3558    0.0000 N   0  0  0  0  0  0  0  0  0  0  0  0
    4.0860   12.3558    0.0000 C   0  0  0  0  0  0  0  0  0  0  0  0
    2.5860   12.3558    0.0000 O   0  0  0  0  0  0  0  0  0  0  0  0
    4.8360   13.6549    0.0000 O   0  0  0  0  0  0  0  0  0  0  0  0
   -0.4140    7.1597    0.0000 C   0  0  0  0  0  0  0  0  0  0  0  0
   -1.9140    7.1597    0.0000 C   0  0  0  0  0  0  0  0  0  0  0  0
  1  2  1  0
  2  3  1  0
  2  4  1  0
  2  5  1  0
  5  6  1  0
  6  7  1  0
  7  8  1  0
  8  9  2  0
  8 10  1  0
 10 11  1  0
 11 12  1  0
 12 13  2  0
 13 14  1  0
 14 15  2  0
 15 16  1  0
 16 17  2  0
 10 18  1  0
 18 19  1  0
 19 20  2  0
 19 21  1  0
 21 22  1  0
 22 23  1  0
 23 24  1  0
 24 25  1  0
 25 26  1  0
 26 27  1  0
 27 28  1  0
 28 29  1  0
  6 30  1  0
 30 31  2  0
 30 32  2  0
 30 33  1  0
 33 34  2  0
 34 35  1  0
 35 36  2  0
 36 37  1  0
 37 38  1  0
 38 39  2  0
 38 40  1  0
 40 41  1  0
 40 42  1  0
 42 43  1  0
 43 44  1  0
 44 45  2  0
 45 46  1  0
 46 47  2  0
 47 48  1  0
 48 49  2  0
 42 50  1  0
 50 51  2  0
 50 52  1  0
 36 53  1  0
 53 54  2  0
 17 12  1  0
 29 22  1  0
 54 33  1  0
 29 25  1  0
 49 44  1  0
M  END
>  <Title>  (83) 
idAADEgen7

$$$$

     RDKit          2D

 59 63  0  0  0  0  0  0  0  0999 V2000
   -5.3849    0.4488    0.0000 C   0  0  0  0  0  0  0  0  0  0  0  0
   -3.9583   -0.0147    0.0000 C   0  0  0  0  0  0  0  0  0  0  0  0
   -2.5317   -0.4783    0.0000 C   0  0  0  0  0  0  0  0  0  0  0  0
   -3.4948    1.4118    0.0000 C   0  0  0  0  0  0  0  0  0  0  0  0
   -4.4218   -1.4413    0.0000 C   0  0  0  0  0  0  0  0  0  0  0  0
   -3.4182   -2.5560    0.0000 C   0  0  0  0  0  0  0  0  0  0  0  0
   -1.9509   -2.2442    0.0000 O   0  0  0  0  0  0  0  0  0  0  0  0
   -3.8817   -3.9826    0.0000 N   0  0  0  0  0  0  0  0  0  0  0  0
   -5.3083   -4.4462    0.0000 C   0  0  0  0  0  0  0  0  0  0  0  0
   -5.3083   -5.9462    0.0000 C   0  0  0  0  0  0  0  0  0  0  0  0
   -3.8817   -6.4097    0.0000 C   0  0  0  0  0  0  0  0  0  0  0  0
   -3.0000   -5.1962    0.0000 C   0  0  0  0  0  0  0  0  0  0  0  0
   -1.5000   -5.1962    0.0000 C   0  0  0  0  0  0  0  0  0  0  0  0
   -0.7500   -6.4952    0.0000 O   0  0  0  0  0  0  0  0  0  0  0  0
   -0.7500   -3.8971    0.0000 N   0  0  0  0  0  0  0  0  0  0  0  0
    0.7500   -3.8971    0.0000 C   0  0  0  0  0  0  0  0  0  0  0  0
    1.5000   -2.5981    0.0000 C   0  0  0  0  0  0  0  0  0  0  0  0
    0.7500   -1.2990    0.0000 C   0  0  0  0  0  0  0  0  0  0  0  0
    1.5000    0.0000    0.0000 C   0  0  0  0  0  0  0  0  0  0  0  0
    0.7500    1.2990    0.0000 C   0  0  0  0  0  0  0  0  0  0  0  0
   -0.7500    1.2990    0.0000 C   0  0  0  0  0  0  0  0  0  0  0  0
   -1.5000    0.0000    0.0000 C   0  0  0  0  0  0  0  0  0  0  0  0
   -0.7500   -1.2990    0.0000 C   0  0  0  0  0  0  0  0  0  0  0  0
    1.5000   -5.1962    0.0000 C   0  0  0  0  0  0  0  0  0  0  0  0
    3.0000   -5.1962    0.0000 O   0  0  0  0  0  0  0  0  0  0  0  0
    0.7500   -6.4952    0.0000 N   0  0  0  0  0  0  0  0  0  0  0  0
    1.5000   -7.7942    0.0000 C   0  0  0  0  0  0  0  0  0  0  0  0
    0.7500   -9.0933    0.0000 C   0  0  0  0  0  0  0  0  0  0  0  0
    1.5000  -10.3923    0.0000 C   0  0  0  0  0  0  0  0  0  0  0  0
    0.7500  -11.6913    0.0000 C   0  0  0  0  0  0  0  0  0  0  0  0
    1.5000  -12.9904    0.0000 C   0  0  0  0  0  0  0  0  0  0  0  0
    3.0000  -12.9904    0.0000 C   0  0  0  0  0  0  0  0  0  0  0  0
    3.7500  -11.6913    0.0000 C   0  0  0  0  0  0  0  0  0  0  0  0
    3.0000  -10.3923    0.0000 C   0  0  0  0  0  0  0  0  0  0  0  0
    3.0000   -7.7942    0.0000 C   0  0  0  0  0  0  0  0  0  0  0  0
    3.7500   -6.4952    0.0000 O   0  0  0  0  0  0  0  0  0  0  0  0
    3.7500   -9.0933    0.0000 N   0  0  0  0  0  0  0  0  0  0  0  0
    5.2500   -9.0933    0.0000 C   0  0  0  0  0  0  0  0  0  0  0  0
    6.0000  -10.3923    0.0000 C   0  0  0  0  0  0  0  0  0  0  0  0
    7.5000  -10.3923    0.0000 C   0  0  0  0  0  0  0  0  0  0  0  0
    8.2500  -11.6913    0.0000 C   0  0  0  0  0  0  0  0  0  0  0  0
    9.7500  -11.6913    0.0000 C   0  0  0  0  0  0  0  0  0  0  0  0
   10.5000  -10.3923    0.0000 C   0  0  0  0  0  0  0  0  0  0  0  0
    9.7500   -9.0933    0.0000 C   0  0  0  0  0  0  0  0  0  0  0  0
    8.2500   -9.0933    0.0000 C   0  0  0  0  0  0  0  0  0  0  0  0
    6.0000   -7.7942    0.0000 C   0  0  0  0  0  0  0  0  0  0  0  0
    5.2500   -6.4952    0.0000 O   0  0  0  0  0  0  0  0  0  0  0  0
    7.5000   -7.7942    0.0000 N   0  0  0  0  0  0  0  0  0  0  0  0
    8.2500   -6.4952    0.0000 C   0  0  0  0  0  0  0  0  0  0  0  0
    9.7500   -6.4952    0.0000 C   0  0  0  0  0  0  0  0  0  0  0  0
   10.5000   -5.1962    0.0000 C   0  0  0  0  0  0  0  0  0  0  0  0
   12.0000   -5.1962    0.0000 C   0  0  0  0  0  0  0  0  0  0  0  0
   12.7500   -3.8971    0.0000 C   0  0  0  0  0  0  0  0  0  0  0  0
   12.0000   -2.5981    0.0000 C   0  0  0  0  0  0  0  0  0  0  0  0
   10.5000   -2.5981    0.0000 C   0  0  0  0  0  0  0  0  0  0  0  0
    9.7500   -3.8971    0.0000 C   0  0  0  0  0  0  0  0  0  0  0  0
    7.5000   -5.1962    0.0000 C   0  0  0  0  0  0  0  0  0  0  0  0
    6.0000   -5.1962    0.0000 O   0  0  0  0  0  0  0  0  0  0  0  0
    8.2500   -3.8971    0.0000 O   0  0  0  0  0  0  0  0  0  0  0  0
  1  2  1  0
  2  3  1  0
  2  4  1  0
  2  5  1  0
  5  6  1  0
  6  7  2  0
  6  8  1  0
  8  9  1  0
  9 10  1  0
 10 11  1  0
 11 12  1  0
 12 13  1  0
 13 14  2  0
 13 15  1  0
 15 16  1  0
 16 17  1  0
 17 18  1  0
 18 19  2  0
 19 20  1  0
 20 21  2  0
 21 22  1  0
 22 23  2  0
 16 24  1  0
 24 25  2  0
 24 26  1  0
 26 27  1  0
 27 28  1  0
 28 29  1  0
 29 30  2  0
 30 31  1  0
 31 32  2  0
 32 33  1  0
 33 34  2  0
 27 35  1  0
 35 36  2  0
 35 37  1  0
 37 38  1  0
 38 39  1  0
 39 40  1  0
 40 41  2  0
 41 42  1  0
 42 43  2  0
 43 44  1  0
 44 45  2  0
 38 46  1  0
 46 47  2  0
 46 48  1  0
 48 49  1  0
 49 50  1  0
 50 51  1  0
 51 52  2  0
 52 53  1  0
 53 54  2  0
 54 55  1  0
 55 56  2  0
 49 57  1  0
 57 58  2  0
 57 59  1  0
 12  8  1  0
 23 18  1  0
 34 29  1  0
 45 40  1  0
 56 51  1  0
M  END
>  <Title>  (84) 
idAADFgen7

$$$$

     RDKit          2D

 52 56  0  0  0  0  0  0  0  0999 V2000
   -7.9140   11.2578    0.0000 C   0  0  0  0  0  0  0  0  0  0  0  0
   -7.9140    9.7578    0.0000 C   0  0  0  0  0  0  0  0  0  0  0  0
   -7.9140    8.2578    0.0000 C   0  0  0  0  0  0  0  0  0  0  0  0
   -9.4140    9.7578    0.0000 C   0  0  0  0  0  0  0  0  0  0  0  0
   -6.4140    9.7578    0.0000 C   0  0  0  0  0  0  0  0  0  0  0  0
   -5.6640    8.4587    0.0000 C   0  0  0  0  0  0  0  0  0  0  0  0
   -6.4140    7.1597    0.0000 N   0  0  0  0  0  0  0  0  0  0  0  0
   -5.6640    5.8606    0.0000 C   0  0  0  0  0  0  0  0  0  0  0  0
   -4.1640    5.8606    0.0000 O   0  0  0  0  0  0  0  0  0  0  0  0
   -6.4140    4.5616    0.0000 C   0  0  0  0  0  0  0  0  0  0  0  0
   -7.9140    4.5616    0.0000 C   0  0  0  0  0  0  0  0  0  0  0  0
   -8.6640    5.8606    0.0000 C   0  0  0  0  0  0  0  0  0  0  0  0
   -7.9140    7.1597    0.0000 C   0  0  0  0  0  0  0  0  0  0  0  0
   -8.6640    8.4587    0.0000 C   0  0  0  0  0  0  0  0  0  0  0  0
  -10.1640    8.4587    0.0000 C   0  0  0  0  0  0  0  0  0  0  0  0
  -10.9140    7.1597    0.0000 C   0  0  0  0  0  0  0  0  0  0  0  0
  -10.1640    5.8606    0.0000 C   0  0  0  0  0  0  0  0  0  0  0  0
   -5.6640    3.2626    0.0000 N   0  0  0  0  0  0  0  0  0  0  0  0
   -4.1640    3.2626    0.0000 C   0  0  0  0  0  0  0  0  0  0  0  0
   -3.4140    4.5616    0.0000 O   0  0  0  0  0  0  0  0  0  0  0  0
   -3.4140    1.9635    0.0000 O   0  0  0  0  0  0  0  0  0  0  0  0
   -1.9140    1.9635    0.0000 C   0  0  0  0  0  0  0  0  0  0  0  0
   -1.0323    3.1771    0.0000 C   0  0  0  0  0  0  0  0  0  0  0  0
    0.3943    2.7135    0.0000 O   0  0  0  0  0  0  0  0  0  0  0  0
    0.3943    1.2135    0.0000 C   0  0  0  0  0  0  0  0  0  0  0  0
    1.2760    0.0000    0.0000 O   0  0  0  0  0  0  0  0  0  0  0  0
    0.3943   -1.2135    0.0000 C   0  0  0  0  0  0  0  0  0  0  0  0
   -1.0323   -0.7500    0.0000 C   0  0  0  0  0  0  0  0  0  0  0  0
   -1.0323    0.7500    0.0000 C   0  0  0  0  0  0  0  0  0  0  0  0
   -4.1640    8.4587    0.0000 S   0  0  0  0  0  0  0  0  0  0  0  0
   -4.1640    9.9587    0.0000 O   0  0  0  0  0  0  0  0  0  0  0  0
   -4.1640    6.9587    0.0000 O   0  0  0  0  0  0  0  0  0  0  0  0
   -2.6640    8.4587    0.0000 C   0  0  0  0  0  0  0  0  0  0  0  0
   -1.9140    9.7578    0.0000 C   0  0  0  0  0  0  0  0  0  0  0  0
   -0.4140    9.7578    0.0000 C   0  0  0  0  0  0  0  0  0  0  0  0
    0.3360    8.4587    0.0000 C   0  0  0  0  0  0  0  0  0  0  0  0
    1.8360    8.4587    0.0000 N   0  0  0  0  0  0  0  0  0  0  0  0
    2.5860    9.7578    0.0000 C   0  0  0  0  0  0  0  0  0  0  0  0
    1.8360   11.0568    0.0000 O   0  0  0  0  0  0  0  0  0  0  0  0
    4.0860    9.7578    0.0000 C   0  0  0  0  0  0  0  0  0  0  0  0
    4.8360   11.0568    0.0000 C   0  0  0  0  0  0  0  0  0  0  0  0
    6.3360   11.0568    0.0000 C   0  0  0  0  0  0  0  0  0  0  0  0
    7.0860   12.3558    0.0000 C   0  0  0  0  0  0  0  0  0  0  0  0
    8.5860   12.3558    0.0000 C   0  0  0  0  0  0  0  0  0  0  0  0
    9.3360   11.0568    0.0000 C   0  0  0  0  0  0  0  0  0  0  0  0
    8.5860    9.7578    0.0000 C   0  0  0  0  0  0  0  0  0  0  0  0
    7.0860    9.7578    0.0000 C   0  0  0  0  0  0  0  0  0  0  0  0
    4.8360    8.4587    0.0000 C   0  0  0  0  0  0  0  0  0  0  0  0
    4.0860    7.1597    0.0000 O   0  0  0  0  0  0  0  0  0  0  0  0
    6.3360    8.4587    0.0000 O   0  0  0  0  0  0  0  0  0  0  0  0
   -0.4140    7.1597    0.0000 C   0  0  0  0  0  0  0  0  0  0  0  0
   -1.9140    7.1597    0.0000 C   0  0  0  0  0  0  0  0  0  0  0  0
  1  2  1  0
  2  3  1  0
  2  4  1  0
  2  5  1  0
  5  6  1  0
  6  7  1  0
  7  8  1  0
  8  9  2  0
  8 10  1  0
 10 11  1  0
 11 12  1  0
 12 13  2  0
 13 14  1  0
 14 15  2  0
 15 16  1  0
 16 17  2  0
 10 18  1  0
 18 19  1  0
 19 20  2  0
 19 21  1  0
 21 22  1  0
 22 23  1  0
 23 24  1  0
 24 25  1  0
 25 26  1  0
 26 27  1  0
 27 28  1  0
 28 29  1  0
  6 30  1  0
 30 31  2  0
 30 32  2  0
 30 33  1  0
 33 34  2  0
 34 35  1  0
 35 36  2  0
 36 37  1  0
 37 38  1  0
 38 39  2  0
 38 40  1  0
 40 41  1  0
 41 42  1  0
 42 43  2  0
 43 44  1  0
 44 45  2  0
 45 46  1  0
 46 47  2  0
 40 48  1  0
 48 49  2  0
 48 50  1  0
 36 51  1  0
 51 52  2  0
 17 12  1  0
 29 22  1  0
 52 33  1  0
 29 25  1  0
 47 42  1  0
M  END
>  <Title>  (85) 
idAADGgen7

$$$$

     RDKit          2D

 22 23  0  0  0  0  0  0  0  0999 V2000
    5.2500   -2.7990    0.0000 C   0  0  0  0  0  0  0  0  0  0  0  0
    5.2500   -1.2990    0.0000 C   0  0  0  0  0  0  0  0  0  0  0  0
    5.2500    0.2010    0.0000 C   0  0  0  0  0  0  0  0  0  0  0  0
    6.7500   -1.2990    0.0000 C   0  0  0  0  0  0  0  0  0  0  0  0
    3.7500   -1.2990    0.0000 N   0  0  0  0  0  0  0  0  0  0  0  0
    3.0000    0.0000    0.0000 C   0  0  0  0  0  0  0  0  0  0  0  0
    3.7500    1.2990    0.0000 O   0  0  0  0  0  0  0  0  0  0  0  0
    1.5000    0.0000    0.0000 C   0  0  0  0  0  0  0  0  0  0  0  0
    0.7500   -1.2990    0.0000 C   0  0  0  0  0  0  0  0  0  0  0  0
   -0.7500   -1.2990    0.0000 C   0  0  0  0  0  0  0  0  0  0  0  0
   -1.5000    0.0000    0.0000 N   0  0  0  0  0  0  0  0  0  0  0  0
   -3.0000    0.0000    0.0000 C   0  0  0  0  0  0  0  0  0  0  0  0
   -3.7500   -1.2990    0.0000 O   0  0  0  0  0  0  0  0  0  0  0  0
   -3.7500    1.2990    0.0000 C   0  0  0  0  0  0  0  0  0  0  0  0
   -5.2500    1.2990    0.0000 C   0  0  0  0  0  0  0  0  0  0  0  0
   -6.0000    2.5981    0.0000 C   0  0  0  0  0  0  0  0  0  0  0  0
   -7.5000    2.5981    0.0000 C   0  0  0  0  0  0  0  0  0  0  0  0
   -8.2500    1.2990    0.0000 C   0  0  0  0  0  0  0  0  0  0  0  0
   -7.5000    0.0000    0.0000 C   0  0  0  0  0  0  0  0  0  0  0  0
   -6.0000    0.0000    0.0000 C   0  0  0  0  0  0  0  0  0  0  0  0
   -0.7500    1.2990    0.0000 C   0  0  0  0  0  0  0  0  0  0  0  0
    0.7500    1.2990    0.0000 C   0  0  0  0  0  0  0  0  0  0  0  0
  1  2  1  0
  2  3  1  0
  2  4  1  0
  2  5  1  0
  5  6  1  0
  6  7  2  0
  6  8  1  0
  8  9  1  0
  9 10  1  0
 10 11  1  0
 11 12  1  0
 12 13  2  0
 12 14  1  0
 14 15  1  0
 15 16  2  0
 16 17  1  0
 17 18  2  0
 18 19  1  0
 19 20  2  0
 11 21  1  0
 21 22  1  0
 22  8  1  0
 20 15  1  0
M  END
>  <Title>  (86) 
idAADHgen7

$$$$

     RDKit          2D

 70 75  0  0  0  0  0  0  0  0999 V2000
   -5.3849    0.4488    0.0000 C   0  0  0  0  0  0  0  0  0  0  0  0
   -3.9583   -0.0147    0.0000 C   0  0  0  0  0  0  0  0  0  0  0  0
   -2.5317   -0.4783    0.0000 C   0  0  0  0  0  0  0  0  0  0  0  0
   -3.4948    1.4118    0.0000 C   0  0  0  0  0  0  0  0  0  0  0  0
   -4.4218   -1.4413    0.0000 O   0  0  0  0  0  0  0  0  0  0  0  0
   -3.4182   -2.5560    0.0000 C   0  0  0  0  0  0  0  0  0  0  0  0
   -1.9509   -2.2442    0.0000 O   0  0  0  0  0  0  0  0  0  0  0  0
   -3.8817   -3.9826    0.0000 N   0  0  0  0  0  0  0  0  0  0  0  0
   -5.3083   -4.4462    0.0000 C   0  0  0  0  0  0  0  0  0  0  0  0
   -5.3083   -5.9462    0.0000 C   0  0  0  0  0  0  0  0  0  0  0  0
   -3.8817   -6.4097    0.0000 C   0  0  0  0  0  0  0  0  0  0  0  0
   -3.0000   -5.1962    0.0000 C   0  0  0  0  0  0  0  0  0  0  0  0
   -1.5000   -5.1962    0.0000 C   0  0  0  0  0  0  0  0  0  0  0  0
   -0.7500   -6.4952    0.0000 O   0  0  0  0  0  0  0  0  0  0  0  0
   -0.7500   -3.8971    0.0000 N   0  0  0  0  0  0  0  0  0  0  0  0
    0.7500   -3.8971    0.0000 C   0  0  0  0  0  0  0  0  0  0  0  0
    1.5000   -2.5981    0.0000 C   0  0  0  0  0  0  0  0  0  0  0  0
    0.7500   -1.2990    0.0000 C   0  0  0  0  0  0  0  0  0  0  0  0
    1.5000    0.0000    0.0000 C   0  0  0  0  0  0  0  0  0  0  0  0
    0.7500    1.2990    0.0000 C   0  0  0  0  0  0  0  0  0  0  0  0
   -0.7500    1.2990    0.0000 C   0  0  0  0  0  0  0  0  0  0  0  0
   -1.5000    0.0000    0.0000 C   0  0  0  0  0  0  0  0  0  0  0  0
   -0.7500   -1.2990    0.0000 C   0  0  0  0  0  0  0  0  0  0  0  0
    1.5000   -5.1962    0.0000 C   0  0  0  0  0  0  0  0  0  0  0  0
    3.0000   -5.1962    0.0000 O   0  0  0  0  0  0  0  0  0  0  0  0
    0.7500   -6.4952    0.0000 N   0  0  0  0  0  0  0  0  0  0  0  0
    1.5000   -7.7942    0.0000 C   0  0  0  0  0  0  0  0  0  0  0  0
    0.7500   -9.0933    0.0000 C   0  0  0  0  0  0  0  0  0  0  0  0
    1.5000  -10.3923    0.0000 C   0  0  0  0  0  0  0  0  0  0  0  0
    0.7500  -11.6913    0.0000 C   0  0  0  0  0  0  0  0  0  0  0  0
    1.5000  -12.9904    0.0000 C   0  0  0  0  0  0  0  0  0  0  0  0
    3.0000  -12.9904    0.0000 C   0  0  0  0  0  0  0  0  0  0  0  0
    3.7500  -11.6913    0.0000 C   0  0  0  0  0  0  0  0  0  0  0  0
    3.0000  -10.3923    0.0000 C   0  0  0  0  0  0  0  0  0  0  0  0
    3.0000   -7.7942    0.0000 C   0  0  0  0  0  0  0  0  0  0  0  0
    3.7500   -6.4952    0.0000 O   0  0  0  0  0  0  0  0  0  0  0  0
    3.7500   -9.0933    0.0000 N   0  0  0  0  0  0  0  0  0  0  0  0
    5.2500   -9.0933    0.0000 C   0  0  0  0  0  0  0  0  0  0  0  0
    6.0000  -10.3923    0.0000 C   0  0  0  0  0  0  0  0  0  0  0  0
    7.5000  -10.3923    0.0000 C   0  0  0  0  0  0  0  0  0  0  0  0
    8.2500  -11.6913    0.0000 C   0  0  0  0  0  0  0  0  0  0  0  0
    9.7500  -11.6913    0.0000 C   0  0  0  0  0  0  0  0  0  0  0  0
   10.5000  -10.3923    0.0000 C   0  0  0  0  0  0  0  0  0  0  0  0
    9.7500   -9.0933    0.0000 C   0  0  0  0  0  0  0  0  0  0  0  0
    8.2500   -9.0933    0.0000 C   0  0  0  0  0  0  0  0  0  0  0  0
    6.0000   -7.7942    0.0000 C   0  0  0  0  0  0  0  0  0  0  0  0
    5.2500   -6.4952    0.0000 O   0  0  0  0  0  0  0  0  0  0  0  0
    7.5000   -7.7942    0.0000 N   0  0  0  0  0  0  0  0  0  0  0  0
    8.2500   -6.4952    0.0000 C   0  0  0  0  0  0  0  0  0  0  0  0
    9.7500   -6.4952    0.0000 C   0  0  0  0  0  0  0  0  0  0  0  0
   10.5000   -5.1962    0.0000 C   0  0  0  0  0  0  0  0  0  0  0  0
   12.0000   -5.1962    0.0000 C   0  0  0  0  0  0  0  0  0  0  0  0
   12.7500   -3.8971    0.0000 C   0  0  0  0  0  0  0  0  0  0  0  0
   12.0000   -2.5981    0.0000 C   0  0  0  0  0  0  0  0  0  0  0  0
   10.5000   -2.5981    0.0000 C   0  0  0  0  0  0  0  0  0  0  0  0
    9.7500   -3.8971    0.0000 C   0  0  0  0  0  0  0  0  0  0  0  0
    7.5000   -5.1962    0.0000 C   0  0  0  0  0  0  0  0  0  0  0  0
    6.0000   -5.1962    0.0000 O   0  0  0  0  0  0  0  0  0  0  0  0
    8.2500   -3.8971    0.0000 N   0  0  0  0  0  0  0  0  0  0  0  0
    7.5000   -2.5981    0.0000 C   0  0  0  0  0  0  0  0  0  0  0  0
    8.2500   -1.2990    0.0000 C   0  0  0  0  0  0  0  0  0  0  0  0
    7.5000   -0.0000    0.0000 C   0  0  0  0  0  0  0  0  0  0  0  0
    8.2500    1.2990    0.0000 C   0  0  0  0  0  0  0  0  0  0  0  0
    7.5000    2.5981    0.0000 C   0  0  0  0  0  0  0  0  0  0  0  0
    6.0000    2.5981    0.0000 C   0  0  0  0  0  0  0  0  0  0  0  0
    5.2500    1.2990    0.0000 C   0  0  0  0  0  0  0  0  0  0  0  0
    6.0000    0.0000    0.0000 C   0  0  0  0  0  0  0  0  0  0  0  0
    6.0000   -2.5981    0.0000 C   0  0  0  0  0  0  0  0  0  0  0  0
    5.2500   -3.8971    0.0000 O   0  0  0  0  0  0  0  0  0  0  0  0
    5.2500   -1.2990    0.0000 O   0  0  0  0  0  0  0  0  0  0  0  0
  1  2  1  0
  2  3  1  0
  2  4  1  0
  2  5  1  0
  5  6  1  0
  6  7  2  0
  6  8  1  0
  8  9  1  0
  9 10  1  0
 10 11  1  0
 11 12  1  0
 12 13  1  0
 13 14  2  0
 13 15  1  0
 15 16  1  0
 16 17  1  0
 17 18  1  0
 18 19  2  0
 19 20  1  0
 20 21  2  0
 21 22  1  0
 22 23  2  0
 16 24  1  0
 24 25  2  0
 24 26  1  0
 26 27  1  0
 27 28  1  0
 28 29  1  0
 29 30  2  0
 30 31  1  0
 31 32  2  0
 32 33  1  0
 33 34  2  0
 27 35  1  0
 35 36  2  0
 35 37  1  0
 37 38  1  0
 38 39  1  0
 39 40  1  0
 40 41  2  0
 41 42  1  0
 42 43  2  0
 43 44  1  0
 44 45  2  0
 38 46  1  0
 46 47  2  0
 46 48  1  0
 48 49  1  0
 49 50  1  0
 50 51  1  0
 51 52  2  0
 52 53  1  0
 53 54  2  0
 54 55  1  0
 55 56  2  0
 49 57  1  0
 57 58  2  0
 57 59  1  0
 59 60  1  0
 60 61  1  0
 61 62  1  0
 62 63  2  0
 63 64  1  0
 64 65  2  0
 65 66  1  0
 66 67  2  0
 60 68  1  0
 68 69  2  0
 68 70  1  0
 12  8  1  0
 23 18  1  0
 34 29  1  0
 45 40  1  0
 56 51  1  0
 67 62  1  0
M  END
>  <Title>  (87) 
idAADIgen7

$$$$

     RDKit          2D

 53 60  0  0  0  0  0  0  0  0999 V2000
  -10.7279   -1.6852    0.0000 C   0  0  0  0  0  0  0  0  0  0  0  0
   -9.2655   -1.3515    0.0000 C   0  0  0  0  0  0  0  0  0  0  0  0
   -9.2655   -2.8515    0.0000 C   0  0  0  0  0  0  0  0  0  0  0  0
   -9.9163   -0.0000    0.0000 C   0  0  0  0  0  0  0  0  0  0  0  0
   -9.2655    1.3515    0.0000 C   0  0  0  0  0  0  0  0  0  0  0  0
   -7.8031    1.6852    0.0000 C   0  0  0  0  0  0  0  0  0  0  0  0
   -6.6304    0.7500    0.0000 C   0  0  0  0  0  0  0  0  0  0  0  0
   -6.9092    2.2238    0.0000 C   0  0  0  0  0  0  0  0  0  0  0  0
   -5.8804    2.0490    0.0000 C   0  0  0  0  0  0  0  0  0  0  0  0
   -6.9410    3.1097    0.0000 C   0  0  0  0  0  0  0  0  0  0  0  0
   -6.5528    4.5586    0.0000 C   0  0  0  0  0  0  0  0  0  0  0  0
   -7.6135    5.6192    0.0000 C   0  0  0  0  0  0  0  0  0  0  0  0
   -9.0950    5.3846    0.0000 C   0  0  0  0  0  0  0  0  0  0  0  0
   -9.7760    6.7211    0.0000 C   0  0  0  0  0  0  0  0  0  0  0  0
   -8.7153    7.7818    0.0000 C   0  0  0  0  0  0  0  0  0  0  0  0
   -7.3788    7.1008    0.0000 C   0  0  0  0  0  0  0  0  0  0  0  0
   -4.5813    2.7990    0.0000 C   0  0  0  0  0  0  0  0  0  0  0  0
   -3.0813    2.7990    0.0000 C   0  0  0  0  0  0  0  0  0  0  0  0
   -1.7823    2.0490    0.0000 C   0  0  0  0  0  0  0  0  0  0  0  0
   -1.0323    0.7500    0.0000 C   0  0  0  0  0  0  0  0  0  0  0  0
   -0.4947    2.1504    0.0000 C   0  0  0  0  0  0  0  0  0  0  0  0
    0.3943    1.2135    0.0000 C   0  0  0  0  0  0  0  0  0  0  0  0
    0.8578    2.6401    0.0000 C   0  0  0  0  0  0  0  0  0  0  0  0
    2.3250    2.9520    0.0000 C   0  0  0  0  0  0  0  0  0  0  0  0
    2.7886    4.3786    0.0000 C   0  0  0  0  0  0  0  0  0  0  0  0
    4.2558    4.6904    0.0000 C   0  0  0  0  0  0  0  0  0  0  0  0
    4.8659    6.0607    0.0000 C   0  0  0  0  0  0  0  0  0  0  0  0
    6.3577    5.9040    0.0000 C   0  0  0  0  0  0  0  0  0  0  0  0
    6.6695    4.4367    0.0000 O   0  0  0  0  0  0  0  0  0  0  0  0
    5.3705    3.6867    0.0000 C   0  0  0  0  0  0  0  0  0  0  0  0
    1.2760    0.0000    0.0000 C   0  0  0  0  0  0  0  0  0  0  0  0
    0.3943   -1.2135    0.0000 C   0  0  0  0  0  0  0  0  0  0  0  0
   -1.0323   -0.7500    0.0000 C   0  0  0  0  0  0  0  0  0  0  0  0
   -1.7823   -2.0490    0.0000 C   0  0  0  0  0  0  0  0  0  0  0  0
   -3.0813   -2.7990    0.0000 C   0  0  0  0  0  0  0  0  0  0  0  0
   -2.6931   -4.2479    0.0000 O   0  0  0  0  0  0  0  0  0  0  0  0
   -4.5813   -2.7990    0.0000 C   0  0  0  0  0  0  0  0  0  0  0  0
   -5.8804   -2.0490    0.0000 C   0  0  0  0  0  0  0  0  0  0  0  0
   -6.6304   -0.7500    0.0000 C   0  0  0  0  0  0  0  0  0  0  0  0
   -6.9092   -2.2238    0.0000 C   0  0  0  0  0  0  0  0  0  0  0  0
   -7.8031   -1.6852    0.0000 C   0  0  0  0  0  0  0  0  0  0  0  0
   -7.4693   -3.1476    0.0000 C   0  0  0  0  0  0  0  0  0  0  0  0
   -8.5689   -4.1679    0.0000 C   0  0  0  0  0  0  0  0  0  0  0  0
   -8.2351   -5.6303    0.0000 C   0  0  0  0  0  0  0  0  0  0  0  0
   -9.3347   -6.6505    0.0000 C   0  0  0  0  0  0  0  0  0  0  0  0
   -9.0009   -8.1129    0.0000 C   0  0  0  0  0  0  0  0  0  0  0  0
   -7.5676   -8.5551    0.0000 C   0  0  0  0  0  0  0  0  0  0  0  0
   -6.4680   -7.5348    0.0000 C   0  0  0  0  0  0  0  0  0  0  0  0
   -9.3057   -5.8746    0.0000 C   0  0  0  0  0  0  0  0  0  0  0  0
  -10.7681   -6.2084    0.0000 C   0  0  0  0  0  0  0  0  0  0  0  0
  -10.4343   -7.6708    0.0000 C   0  0  0  0  0  0  0  0  0  0  0  0
   -9.6685   -5.1881    0.0000 C   0  0  0  0  0  0  0  0  0  0  0  0
   -6.8018   -6.0724    0.0000 C   0  0  0  0  0  0  0  0  0  0  0  0
  1  2  1  0
  2  3  1  0
  2  4  1  0
  4  5  1  0
  5  6  1  0
  6  7  1  0
  7  8  1  0
  7  9  1  0
  9 10  1  0
 10 11  1  0
 11 12  1  0
 12 13  1  0
 13 14  1  0
 14 15  1  0
 15 16  1  0
  9 17  1  0
 17 18  1  0
 18 19  1  0
 19 20  1  0
 20 21  1  0
 20 22  1  0
 22 23  1  0
 23 24  1  0
 24 25  1  0
 25 26  1  0
 26 27  1  0
 27 28  1  0
 28 29  1  0
 29 30  1  0
 22 31  1  0
 31 32  1  0
 32 33  1  0
 33 34  1  0
 34 35  1  0
 35 36  1  0
 35 37  1  0
 37 38  1  0
 38 39  1  0
 39 40  1  0
 39 41  1  0
 41 42  1  0
 42 43  1  0
 43 44  1  0
 44 45  1  0
 45 46  1  0
 46 47  1  0
 47 48  1  0
 48 49  1  0
 49 50  1  0
 50 51  1  0
 50 52  1  0
 48 53  1  0
 41  2  1  0
 52 44  1  0
 39  7  1  0
 53 44  1  0
 16 12  1  0
 33 20  1  0
 51 46  1  0
 30 26  1  0
M  END
>  <Title>  (88) 
idAADJgen7

$$$$

     RDKit          2D

 67 73  0  0  0  0  0  0  0  0999 V2000
   -0.6149   13.1058    0.0000 C   0  0  0  0  0  0  0  0  0  0  0  0
   -1.9140   12.3558    0.0000 C   0  0  0  0  0  0  0  0  0  0  0  0
   -3.2130   11.6058    0.0000 C   0  0  0  0  0  0  0  0  0  0  0  0
   -2.6640   13.6549    0.0000 C   0  0  0  0  0  0  0  0  0  0  0  0
   -1.1640   11.0568    0.0000 C   0  0  0  0  0  0  0  0  0  0  0  0
   -1.9140    9.7578    0.0000 C   0  0  0  0  0  0  0  0  0  0  0  0
   -3.4140    9.7578    0.0000 N   0  0  0  0  0  0  0  0  0  0  0  0
   -4.1640    8.4587    0.0000 C   0  0  0  0  0  0  0  0  0  0  0  0
   -3.4140    7.1597    0.0000 O   0  0  0  0  0  0  0  0  0  0  0  0
   -5.6640    8.4587    0.0000 C   0  0  0  0  0  0  0  0  0  0  0  0
   -6.4140    9.7578    0.0000 C   0  0  0  0  0  0  0  0  0  0  0  0
   -5.6640   11.0568    0.0000 C   0  0  0  0  0  0  0  0  0  0  0  0
   -4.1640   11.0568    0.0000 C   0  0  0  0  0  0  0  0  0  0  0  0
   -3.4140   12.3558    0.0000 C   0  0  0  0  0  0  0  0  0  0  0  0
   -4.1640   13.6549    0.0000 C   0  0  0  0  0  0  0  0  0  0  0  0
   -5.6640   13.6549    0.0000 C   0  0  0  0  0  0  0  0  0  0  0  0
   -6.4140   12.3558    0.0000 C   0  0  0  0  0  0  0  0  0  0  0  0
   -6.4140    7.1597    0.0000 N   0  0  0  0  0  0  0  0  0  0  0  0
   -5.6640    5.8606    0.0000 C   0  0  0  0  0  0  0  0  0  0  0  0
   -4.1640    5.8606    0.0000 O   0  0  0  0  0  0  0  0  0  0  0  0
   -6.4140    4.5616    0.0000 C   0  0  0  0  0  0  0  0  0  0  0  0
   -7.9140    4.5616    0.0000 C   0  0  0  0  0  0  0  0  0  0  0  0
   -8.6640    5.8606    0.0000 C   0  0  0  0  0  0  0  0  0  0  0  0
   -7.9140    7.1597    0.0000 C   0  0  0  0  0  0  0  0  0  0  0  0
   -8.6640    8.4587    0.0000 C   0  0  0  0  0  0  0  0  0  0  0  0
  -10.1640    8.4587    0.0000 C   0  0  0  0  0  0  0  0  0  0  0  0
  -10.9140    7.1597    0.0000 C   0  0  0  0  0  0  0  0  0  0  0  0
  -10.1640    5.8606    0.0000 C   0  0  0  0  0  0  0  0  0  0  0  0
   -5.6640    3.2626    0.0000 N   0  0  0  0  0  0  0  0  0  0  0  0
   -4.1640    3.2626    0.0000 C   0  0  0  0  0  0  0  0  0  0  0  0
   -3.4140    4.5616    0.0000 O   0  0  0  0  0  0  0  0  0  0  0  0
   -3.4140    1.9635    0.0000 O   0  0  0  0  0  0  0  0  0  0  0  0
   -1.9140    1.9635    0.0000 C   0  0  0  0  0  0  0  0  0  0  0  0
   -1.0323    3.1771    0.0000 C   0  0  0  0  0  0  0  0  0  0  0  0
    0.3943    2.7135    0.0000 O   0  0  0  0  0  0  0  0  0  0  0  0
    0.3943    1.2135    0.0000 C   0  0  0  0  0  0  0  0  0  0  0  0
    1.2760    0.0000    0.0000 O   0  0  0  0  0  0  0  0  0  0  0  0
    0.3943   -1.2135    0.0000 C   0  0  0  0  0  0  0  0  0  0  0  0
   -1.0323   -0.7500    0.0000 C   0  0  0  0  0  0  0  0  0  0  0  0
   -1.0323    0.7500    0.0000 C   0  0  0  0  0  0  0  0  0  0  0  0
   -1.1640    8.4587    0.0000 S   0  0  0  0  0  0  0  0  0  0  0  0
   -2.4630    7.7087    0.0000 O   0  0  0  0  0  0  0  0  0  0  0  0
    0.1351    9.2087    0.0000 O   0  0  0  0  0  0  0  0  0  0  0  0
   -0.4140    7.1597    0.0000 C   0  0  0  0  0  0  0  0  0  0  0  0
   -1.1640    5.8606    0.0000 C   0  0  0  0  0  0  0  0  0  0  0  0
   -0.4140    4.5616    0.0000 C   0  0  0  0  0  0  0  0  0  0  0  0
    1.0860    4.5616    0.0000 C   0  0  0  0  0  0  0  0  0  0  0  0
    1.8360    3.2626    0.0000 N   0  0  0  0  0  0  0  0  0  0  0  0
    3.3360    3.2626    0.0000 C   0  0  0  0  0  0  0  0  0  0  0  0
    4.0860    4.5616    0.0000 O   0  0  0  0  0  0  0  0  0  0  0  0
    4.0860    1.9635    0.0000 C   0  0  0  0  0  0  0  0  0  0  0  0
    3.3360    0.6645    0.0000 C   0  0  0  0  0  0  0  0  0  0  0  0
    4.0860   -0.6346    0.0000 C   0  0  0  0  0  0  0  0  0  0  0  0
    5.5860   -0.6346    0.0000 C   0  0  0  0  0  0  0  0  0  0  0  0
    6.3360   -1.9336    0.0000 N   0  0  0  0  0  0  0  0  0  0  0  0
    5.5860   -3.2326    0.0000 C   0  0  0  0  0  0  0  0  0  0  0  0
    4.0860   -3.2326    0.0000 O   0  0  0  0  0  0  0  0  0  0  0  0
    6.3360   -4.5317    0.0000 C   0  0  0  0  0  0  0  0  0  0  0  0
    5.5860   -5.8307    0.0000 C   0  0  0  0  0  0  0  0  0  0  0  0
    6.3360   -7.1297    0.0000 C   0  0  0  0  0  0  0  0  0  0  0  0
    7.8360   -7.1297    0.0000 C   0  0  0  0  0  0  0  0  0  0  0  0
    8.5860   -5.8307    0.0000 C   0  0  0  0  0  0  0  0  0  0  0  0
    7.8360   -4.5317    0.0000 C   0  0  0  0  0  0  0  0  0  0  0  0
    6.3360    0.6645    0.0000 C   0  0  0  0  0  0  0  0  0  0  0  0
    5.5860    1.9635    0.0000 C   0  0  0  0  0  0  0  0  0  0  0  0
    1.8360    5.8606    0.0000 C   0  0  0  0  0  0  0  0  0  0  0  0
    1.0860    7.1597    0.0000 C   0  0  0  0  0  0  0  0  0  0  0  0
  1  2  1  0
  2  3  1  0
  2  4  1  0
  2  5  1  0
  5  6  1  0
  6  7  1  0
  7  8  1  0
  8  9  2  0
  8 10  1  0
 10 11  1  0
 11 12  1  0
 12 13  2  0
 13 14  1  0
 14 15  2  0
 15 16  1  0
 16 17  2  0
 10 18  1  0
 18 19  1  0
 19 20  2  0
 19 21  1  0
 21 22  1  0
 22 23  1  0
 23 24  2  0
 24 25  1  0
 25 26  2  0
 26 27  1  0
 27 28  2  0
 21 29  1  0
 29 30  1  0
 30 31  2  0
 30 32  1  0
 32 33  1  0
 33 34  1  0
 34 35  1  0
 35 36  1  0
 36 37  1  0
 37 38  1  0
 38 39  1  0
 39 40  1  0
  6 41  1  0
 41 42  2  0
 41 43  2  0
 41 44  1  0
 44 45  2  0
 45 46  1  0
 46 47  2  0
 47 48  1  0
 48 49  1  0
 49 50  2  0
 49 51  1  0
 51 52  2  0
 52 53  1  0
 53 54  2  0
 54 55  1  0
 55 56  1  0
 56 57  2  0
 56 58  1  0
 58 59  2  0
 59 60  1  0
 60 61  2  0
 61 62  1  0
 62 63  2  0
 54 64  1  0
 64 65  2  0
 47 66  1  0
 66 67  2  0
 17 12  1  0
 28 23  1  0
 40 33  1  0
 67 44  1  0
 40 36  1  0
 65 51  1  0
 63 58  1  0
M  END
>  <Title>  (89) 
idAADKgen7

$$$$

     RDKit          2D

 53 58  0  0  0  0  0  0  0  0999 V2000
   -7.9140   11.2578    0.0000 C   0  0  0  0  0  0  0  0  0  0  0  0
   -7.9140    9.7578    0.0000 C   0  0  0  0  0  0  0  0  0  0  0  0
   -7.9140    8.2578    0.0000 C   0  0  0  0  0  0  0  0  0  0  0  0
   -9.4140    9.7578    0.0000 C   0  0  0  0  0  0  0  0  0  0  0  0
   -6.4140    9.7578    0.0000 C   0  0  0  0  0  0  0  0  0  0  0  0
   -5.6640    8.4587    0.0000 C   0  0  0  0  0  0  0  0  0  0  0  0
   -6.4140    7.1597    0.0000 N   0  0  0  0  0  0  0  0  0  0  0  0
   -5.6640    5.8606    0.0000 C   0  0  0  0  0  0  0  0  0  0  0  0
   -4.1640    5.8606    0.0000 O   0  0  0  0  0  0  0  0  0  0  0  0
   -6.4140    4.5616    0.0000 C   0  0  0  0  0  0  0  0  0  0  0  0
   -7.9140    4.5616    0.0000 C   0  0  0  0  0  0  0  0  0  0  0  0
   -8.6640    5.8606    0.0000 C   0  0  0  0  0  0  0  0  0  0  0  0
   -7.9140    7.1597    0.0000 C   0  0  0  0  0  0  0  0  0  0  0  0
   -8.6640    8.4587    0.0000 C   0  0  0  0  0  0  0  0  0  0  0  0
  -10.1640    8.4587    0.0000 C   0  0  0  0  0  0  0  0  0  0  0  0
  -10.9140    7.1597    0.0000 C   0  0  0  0  0  0  0  0  0  0  0  0
  -10.1640    5.8606    0.0000 C   0  0  0  0  0  0  0  0  0  0  0  0
   -5.6640    3.2626    0.0000 N   0  0  0  0  0  0  0  0  0  0  0  0
   -4.1640    3.2626    0.0000 C   0  0  0  0  0  0  0  0  0  0  0  0
   -3.4140    4.5616    0.0000 O   0  0  0  0  0  0  0  0  0  0  0  0
   -3.4140    1.9635    0.0000 O   0  0  0  0  0  0  0  0  0  0  0  0
   -1.9140    1.9635    0.0000 C   0  0  0  0  0  0  0  0  0  0  0  0
   -1.0323    3.1771    0.0000 C   0  0  0  0  0  0  0  0  0  0  0  0
    0.3943    2.7135    0.0000 O   0  0  0  0  0  0  0  0  0  0  0  0
    0.3943    1.2135    0.0000 C   0  0  0  0  0  0  0  0  0  0  0  0
    1.2760    0.0000    0.0000 O   0  0  0  0  0  0  0  0  0  0  0  0
    0.3943   -1.2135    0.0000 C   0  0  0  0  0  0  0  0  0  0  0  0
   -1.0323   -0.7500    0.0000 C   0  0  0  0  0  0  0  0  0  0  0  0
   -1.0323    0.7500    0.0000 C   0  0  0  0  0  0  0  0  0  0  0  0
   -4.1640    8.4587    0.0000 S   0  0  0  0  0  0  0  0  0  0  0  0
   -4.1640    9.9587    0.0000 O   0  0  0  0  0  0  0  0  0  0  0  0
   -4.1640    6.9587    0.0000 O   0  0  0  0  0  0  0  0  0  0  0  0
   -2.6640    8.4587    0.0000 C   0  0  0  0  0  0  0  0  0  0  0  0
   -1.9140    9.7578    0.0000 C   0  0  0  0  0  0  0  0  0  0  0  0
   -0.4140    9.7578    0.0000 C   0  0  0  0  0  0  0  0  0  0  0  0
    0.3360    8.4587    0.0000 C   0  0  0  0  0  0  0  0  0  0  0  0
    1.8360    8.4587    0.0000 N   0  0  0  0  0  0  0  0  0  0  0  0
    2.5860    9.7578    0.0000 C   0  0  0  0  0  0  0  0  0  0  0  0
    1.8360   11.0568    0.0000 O   0  0  0  0  0  0  0  0  0  0  0  0
    4.0860    9.7578    0.0000 C   0  0  0  0  0  0  0  0  0  0  0  0
    4.8360   11.0568    0.0000 C   0  0  0  0  0  0  0  0  0  0  0  0
    6.3360   11.0568    0.0000 C   0  0  0  0  0  0  0  0  0  0  0  0
    7.0860    9.7578    0.0000 C   0  0  0  0  0  0  0  0  0  0  0  0
    8.5860    9.7578    0.0000 C   0  0  0  0  0  0  0  0  0  0  0  0
    9.3360   11.0568    0.0000 C   0  0  0  0  0  0  0  0  0  0  0  0
   10.8360   11.0568    0.0000 C   0  0  0  0  0  0  0  0  0  0  0  0
   11.5860    9.7578    0.0000 C   0  0  0  0  0  0  0  0  0  0  0  0
   10.8360    8.4587    0.0000 C   0  0  0  0  0  0  0  0  0  0  0  0
    9.3360    8.4587    0.0000 N   0  0  0  0  0  0  0  0  0  0  0  0
    6.3360    8.4587    0.0000 N   0  0  0  0  0  0  0  0  0  0  0  0
    4.8360    8.4587    0.0000 C   0  0  0  0  0  0  0  0  0  0  0  0
   -0.4140    7.1597    0.0000 C   0  0  0  0  0  0  0  0  0  0  0  0
   -1.9140    7.1597    0.0000 C   0  0  0  0  0  0  0  0  0  0  0  0
  1  2  1  0
  2  3  1  0
  2  4  1  0
  2  5  1  0
  5  6  1  0
  6  7  1  0
  7  8  1  0
  8  9  2  0
  8 10  1  0
 10 11  1  0
 11 12  1  0
 12 13  2  0
 13 14  1  0
 14 15  2  0
 15 16  1  0
 16 17  2  0
 10 18  1  0
 18 19  1  0
 19 20  2  0
 19 21  1  0
 21 22  1  0
 22 23  1  0
 23 24  1  0
 24 25  1  0
 25 26  1  0
 26 27  1  0
 27 28  1  0
 28 29  1  0
  6 30  1  0
 30 31  2  0
 30 32  2  0
 30 33  1  0
 33 34  2  0
 34 35  1  0
 35 36  2  0
 36 37  1  0
 37 38  1  0
 38 39  2  0
 38 40  1  0
 40 41  2  0
 41 42  1  0
 42 43  2  0
 43 44  1  0
 44 45  2  0
 45 46  1  0
 46 47  2  0
 47 48  1  0
 48 49  2  0
 43 50  1  0
 50 51  2  0
 36 52  1  0
 52 53  2  0
 17 12  1  0
 29 22  1  0
 53 33  1  0
 29 25  1  0
 51 40  1  0
 49 44  1  0
M  END
>  <Title>  (90) 
idAADLgen7

$$$$

     RDKit          2D

 36 41  0  0  0  0  0  0  0  0999 V2000
   -4.0256    4.7256    0.0000 C   0  0  0  0  0  0  0  0  0  0  0  0
   -4.5736    3.3293    0.0000 C   0  0  0  0  0  0  0  0  0  0  0  0
   -5.1216    1.9330    0.0000 C   0  0  0  0  0  0  0  0  0  0  0  0
   -5.9699    3.8773    0.0000 C   0  0  0  0  0  0  0  0  0  0  0  0
   -3.1773    2.7813    0.0000 C   0  0  0  0  0  0  0  0  0  0  0  0
   -2.0045    3.7165    0.0000 C   0  0  0  0  0  0  0  0  0  0  0  0
   -0.6082    3.1685    0.0000 C   0  0  0  0  0  0  0  0  0  0  0  0
   -0.3846    1.6852    0.0000 C   0  0  0  0  0  0  0  0  0  0  0  0
    0.7149    2.7055    0.0000 C   0  0  0  0  0  0  0  0  0  0  0  0
    1.0777    1.3515    0.0000 C   0  0  0  0  0  0  0  0  0  0  0  0
    2.0130    2.5242    0.0000 C   0  0  0  0  0  0  0  0  0  0  0  0
    3.4962    2.3006    0.0000 C   0  0  0  0  0  0  0  0  0  0  0  0
    4.4315    3.4734    0.0000 C   0  0  0  0  0  0  0  0  0  0  0  0
    4.0324    4.9193    0.0000 C   0  0  0  0  0  0  0  0  0  0  0  0
    5.2843    5.7457    0.0000 C   0  0  0  0  0  0  0  0  0  0  0  0
    6.4570    4.8104    0.0000 C   0  0  0  0  0  0  0  0  0  0  0  0
    5.9300    3.4061    0.0000 C   0  0  0  0  0  0  0  0  0  0  0  0
    1.7286    0.0000    0.0000 C   0  0  0  0  0  0  0  0  0  0  0  0
    1.0777   -1.3515    0.0000 C   0  0  0  0  0  0  0  0  0  0  0  0
   -0.3846   -1.6852    0.0000 C   0  0  0  0  0  0  0  0  0  0  0  0
   -1.5574   -0.7500    0.0000 C   0  0  0  0  0  0  0  0  0  0  0  0
   -1.5574    0.7500    0.0000 C   0  0  0  0  0  0  0  0  0  0  0  0
   -2.7967   -0.0950    0.0000 C   0  0  0  0  0  0  0  0  0  0  0  0
   -2.9537    1.2980    0.0000 C   0  0  0  0  0  0  0  0  0  0  0  0
   -4.1264    0.3628    0.0000 C   0  0  0  0  0  0  0  0  0  0  0  0
   -5.5228    0.9108    0.0000 C   0  0  0  0  0  0  0  0  0  0  0  0
   -6.6955   -0.0244    0.0000 C   0  0  0  0  0  0  0  0  0  0  0  0
   -8.0918    0.5236    0.0000 C   0  0  0  0  0  0  0  0  0  0  0  0
   -9.2646   -0.4117    0.0000 C   0  0  0  0  0  0  0  0  0  0  0  0
   -9.0410   -1.8949    0.0000 C   0  0  0  0  0  0  0  0  0  0  0  0
   -7.6447   -2.4429    0.0000 C   0  0  0  0  0  0  0  0  0  0  0  0
   -7.3801    0.8341    0.0000 C   0  0  0  0  0  0  0  0  0  0  0  0
   -8.3154    2.0068    0.0000 C   0  0  0  0  0  0  0  0  0  0  0  0
   -9.4881    1.0716    0.0000 C   0  0  0  0  0  0  0  0  0  0  0  0
   -6.9191    1.4588    0.0000 C   0  0  0  0  0  0  0  0  0  0  0  0
   -6.4719   -1.5077    0.0000 C   0  0  0  0  0  0  0  0  0  0  0  0
  1  2  1  0
  2  3  1  0
  2  4  1  0
  2  5  1  0
  5  6  1  0
  6  7  1  0
  7  8  1  0
  8  9  1  0
  8 10  1  0
 10 11  1  0
 11 12  1  0
 12 13  1  0
 13 14  1  0
 14 15  1  0
 15 16  1  0
 16 17  1  0
 10 18  1  0
 18 19  1  0
 19 20  1  0
 20 21  1  0
 21 22  1  0
 22 23  1  0
 22 24  1  0
 24 25  1  0
 25 26  1  0
 26 27  1  0
 27 28  1  0
 28 29  1  0
 29 30  1  0
 30 31  1  0
 31 32  1  0
 32 33  1  0
 33 34  1  0
 33 35  1  0
 31 36  1  0
 24  5  1  0
 35 27  1  0
 22  8  1  0
 36 27  1  0
 17 13  1  0
 34 29  1  0
M  END
>  <Title>  (91) 
idAADMgen7

$$$$

     RDKit          2D

 68 75  0  0  0  0  0  0  0  0999 V2000
   -0.7500   -3.8971    0.0000 O   0  0  0  0  0  0  0  0  0  0  0  0
    0.7500   -3.8971    0.0000 C   0  0  0  0  0  0  0  0  0  0  0  0
    1.5000   -5.1962    0.0000 N   0  0  0  0  0  0  0  0  0  0  0  0
    0.7500   -6.4952    0.0000 C   0  0  0  0  0  0  0  0  0  0  0  0
    1.5000   -7.7942    0.0000 C   0  0  0  0  0  0  0  0  0  0  0  0
    2.9095   -7.2812    0.0000 C   0  0  0  0  0  0  0  0  0  0  0  0
    4.0586   -8.2454    0.0000 C   0  0  0  0  0  0  0  0  0  0  0  0
    5.4681   -7.7323    0.0000 C   0  0  0  0  0  0  0  0  0  0  0  0
    5.7286   -6.2551    0.0000 C   0  0  0  0  0  0  0  0  0  0  0  0
    4.5796   -5.2910    0.0000 C   0  0  0  0  0  0  0  0  0  0  0  0
    3.1700   -5.8040    0.0000 C   0  0  0  0  0  0  0  0  0  0  0  0
    1.7605   -9.2714    0.0000 C   0  0  0  0  0  0  0  0  0  0  0  0
    0.3509   -8.7584    0.0000 C   0  0  0  0  0  0  0  0  0  0  0  0
    1.5000   -2.5981    0.0000 N   0  0  0  0  0  0  0  0  0  0  0  0
    0.7500   -1.2990    0.0000 C   0  0  0  0  0  0  0  0  0  0  0  0
    1.5000    0.0000    0.0000 C   0  0  0  0  0  0  0  0  0  0  0  0
    0.7500    1.2990    0.0000 C   0  0  0  0  0  0  0  0  0  0  0  0
   -0.7500    1.2990    0.0000 C   0  0  0  0  0  0  0  0  0  0  0  0
   -1.5000    0.0000    0.0000 C   0  0  0  0  0  0  0  0  0  0  0  0
   -0.7500   -1.2990    0.0000 C   0  0  0  0  0  0  0  0  0  0  0  0
   -0.0000   -0.0000    0.0000 C   0  0  0  0  0  0  0  0  0  0  0  0
    0.7500   -1.2990    0.0000 C   0  0  0  0  0  0  0  0  0  0  0  0
    2.2500   -1.2990    0.0000 O   0  0  0  0  0  0  0  0  0  0  0  0
   -0.0000   -2.5981    0.0000 N   0  0  0  0  0  0  0  0  0  0  0  0
    0.7500   -3.8971    0.0000 C   0  0  0  0  0  0  0  0  0  0  0  0
   -0.0000   -5.1962    0.0000 C   0  0  0  0  0  0  0  0  0  0  0  0
    0.7500   -6.4952    0.0000 C   0  0  0  0  0  0  0  0  0  0  0  0
   -0.0000   -7.7942    0.0000 C   0  0  0  0  0  0  0  0  0  0  0  0
    0.7500   -9.0933    0.0000 C   0  0  0  0  0  0  0  0  0  0  0  0
    2.2500   -9.0933    0.0000 C   0  0  0  0  0  0  0  0  0  0  0  0
    3.0000   -7.7942    0.0000 C   0  0  0  0  0  0  0  0  0  0  0  0
    2.2500   -6.4952    0.0000 C   0  0  0  0  0  0  0  0  0  0  0  0
    2.2500   -3.8971    0.0000 C   0  0  0  0  0  0  0  0  0  0  0  0
    3.0000   -2.5981    0.0000 O   0  0  0  0  0  0  0  0  0  0  0  0
    3.0000   -5.1962    0.0000 N   0  0  0  0  0  0  0  0  0  0  0  0
    4.5000   -5.1962    0.0000 C   0  0  0  0  0  0  0  0  0  0  0  0
    5.2500   -6.4952    0.0000 C   0  0  0  0  0  0  0  0  0  0  0  0
    6.7500   -6.4952    0.0000 C   0  0  0  0  0  0  0  0  0  0  0  0
    7.5000   -7.7942    0.0000 C   0  0  0  0  0  0  0  0  0  0  0  0
    9.0000   -7.7942    0.0000 C   0  0  0  0  0  0  0  0  0  0  0  0
    9.7500   -6.4952    0.0000 C   0  0  0  0  0  0  0  0  0  0  0  0
    9.0000   -5.1962    0.0000 C   0  0  0  0  0  0  0  0  0  0  0  0
    7.5000   -5.1962    0.0000 C   0  0  0  0  0  0  0  0  0  0  0  0
    5.2500   -3.8971    0.0000 C   0  0  0  0  0  0  0  0  0  0  0  0
    4.5000   -2.5981    0.0000 O   0  0  0  0  0  0  0  0  0  0  0  0
    6.7500   -3.8971    0.0000 N   0  0  0  0  0  0  0  0  0  0  0  0
    7.5000   -2.5981    0.0000 C   0  0  0  0  0  0  0  0  0  0  0  0
    9.0000   -2.5981    0.0000 C   0  0  0  0  0  0  0  0  0  0  0  0
    9.7500   -1.2990    0.0000 C   0  0  0  0  0  0  0  0  0  0  0  0
   11.2500   -1.2990    0.0000 C   0  0  0  0  0  0  0  0  0  0  0  0
   12.0000   -0.0000    0.0000 C   0  0  0  0  0  0  0  0  0  0  0  0
   11.2500    1.2990    0.0000 C   0  0  0  0  0  0  0  0  0  0  0  0
    9.7500    1.2990    0.0000 C   0  0  0  0  0  0  0  0  0  0  0  0
    9.0000   -0.0000    0.0000 C   0  0  0  0  0  0  0  0  0  0  0  0
    6.7500   -1.2990    0.0000 C   0  0  0  0  0  0  0  0  0  0  0  0
    5.2500   -1.2990    0.0000 O   0  0  0  0  0  0  0  0  0  0  0  0
    7.5000   -0.0000    0.0000 N   0  0  0  0  0  0  0  0  0  0  0  0
    6.7500    1.2990    0.0000 C   0  0  0  0  0  0  0  0  0  0  0  0
    7.5000    2.5981    0.0000 C   0  0  0  0  0  0  0  0  0  0  0  0
    6.7500    3.8971    0.0000 C   0  0  0  0  0  0  0  0  0  0  0  0
    7.5000    5.1962    0.0000 C   0  0  0  0  0  0  0  0  0  0  0  0
    6.7500    6.4952    0.0000 C   0  0  0  0  0  0  0  0  0  0  0  0
    5.2500    6.4952    0.0000 C   0  0  0  0  0  0  0  0  0  0  0  0
    4.5000    5.1962    0.0000 C   0  0  0  0  0  0  0  0  0  0  0  0
    5.2500    3.8971    0.0000 C   0  0  0  0  0  0  0  0  0  0  0  0
    5.2500    1.2990    0.0000 C   0  0  0  0  0  0  0  0  0  0  0  0
    4.5000   -0.0000    0.0000 O   0  0  0  0  0  0  0  0  0  0  0  0
    4.5000    2.5981    0.0000 O   0  0  0  0  0  0  0  0  0  0  0  0
  1  2  2  0
  2  3  1  0
  3  4  1  0
  4  5  1  0
  5  6  1  0
  6  7  2  0
  7  8  1  0
  8  9  2  0
  9 10  1  0
 10 11  2  0
  5 12  1  0
 12 13  1  0
  2 14  1  0
 14 15  1  0
 15 16  1  0
 16 17  1  0
 17 18  1  0
 18 19  1  0
 19 20  1  0
 19 21  1  0
 21 22  1  0
 22 23  2  0
 22 24  1  0
 24 25  1  0
 25 26  1  0
 26 27  1  0
 27 28  2  0
 28 29  1  0
 29 30  2  0
 30 31  1  0
 31 32  2  0
 25 33  1  0
 33 34  2  0
 33 35  1  0
 35 36  1  0
 36 37  1  0
 37 38  1  0
 38 39  2  0
 39 40  1  0
 40 41  2  0
 41 42  1  0
 42 43  2  0
 36 44  1  0
 44 45  2  0
 44 46  1  0
 46 47  1  0
 47 48  1  0
 48 49  1  0
 49 50  2  0
 50 51  1  0
 51 52  2  0
 52 53  1  0
 53 54  2  0
 47 55  1  0
 55 56  2  0
 55 57  1  0
 57 58  1  0
 58 59  1  0
 59 60  1  0
 60 61  2  0
 61 62  1  0
 62 63  2  0
 63 64  1  0
 64 65  2  0
 58 66  1  0
 66 67  2  0
 66 68  1  0
 13  5  1  0
 20 15  1  0
 32 27  1  0
 43 38  1  0
 54 49  1  0
 65 60  1  0
 11  6  1  0
 21 17  1  0
M  END
>  <Title>  (92) 
idAADNgen7

$$$$

     RDKit          2D

 68 72  0  0  0  0  0  0  0  0999 V2000
    3.0000  -11.8923    0.0000 C   0  0  0  0  0  0  0  0  0  0  0  0
    3.0000  -10.3923    0.0000 C   0  0  0  0  0  0  0  0  0  0  0  0
    3.0000   -8.8923    0.0000 C   0  0  0  0  0  0  0  0  0  0  0  0
    4.5000  -10.3923    0.0000 C   0  0  0  0  0  0  0  0  0  0  0  0
    1.5000  -10.3923    0.0000 C   0  0  0  0  0  0  0  0  0  0  0  0
    0.7500   -9.0933    0.0000 C   0  0  0  0  0  0  0  0  0  0  0  0
    1.5000   -7.7942    0.0000 C   0  0  0  0  0  0  0  0  0  0  0  0
    0.7500   -6.4952    0.0000 C   0  0  0  0  0  0  0  0  0  0  0  0
    1.5000   -5.1962    0.0000 C   0  0  0  0  0  0  0  0  0  0  0  0
    0.7500   -3.8971    0.0000 C   0  0  0  0  0  0  0  0  0  0  0  0
    1.5000   -2.5981    0.0000 C   0  0  0  0  0  0  0  0  0  0  0  0
    0.7500   -1.2990    0.0000 C   0  0  0  0  0  0  0  0  0  0  0  0
    1.5000    0.0000    0.0000 C   0  0  0  0  0  0  0  0  0  0  0  0
    0.7500    1.2990    0.0000 C   0  0  0  0  0  0  0  0  0  0  0  0
   -0.7500    1.2990    0.0000 C   0  0  0  0  0  0  0  0  0  0  0  0
   -1.5000    0.0000    0.0000 C   0  0  0  0  0  0  0  0  0  0  0  0
   -0.7500   -1.2990    0.0000 C   0  0  0  0  0  0  0  0  0  0  0  0
   -0.7500   -3.8971    0.0000 C   0  0  0  0  0  0  0  0  0  0  0  0
   -1.5000   -2.5981    0.0000 O   0  0  0  0  0  0  0  0  0  0  0  0
   -1.5000   -5.1962    0.0000 N   0  0  0  0  0  0  0  0  0  0  0  0
   -3.0000   -5.1962    0.0000 C   0  0  0  0  0  0  0  0  0  0  0  0
   -3.7500   -6.4952    0.0000 C   0  0  0  0  0  0  0  0  0  0  0  0
   -5.2500   -6.4952    0.0000 C   0  0  0  0  0  0  0  0  0  0  0  0
   -6.0000   -5.1962    0.0000 C   0  0  0  0  0  0  0  0  0  0  0  0
   -7.5000   -5.1962    0.0000 C   0  0  0  0  0  0  0  0  0  0  0  0
   -8.2500   -6.4952    0.0000 C   0  0  0  0  0  0  0  0  0  0  0  0
   -7.5000   -7.7942    0.0000 C   0  0  0  0  0  0  0  0  0  0  0  0
   -6.0000   -7.7942    0.0000 C   0  0  0  0  0  0  0  0  0  0  0  0
   -3.7500   -3.8971    0.0000 C   0  0  0  0  0  0  0  0  0  0  0  0
   -3.0000   -2.5981    0.0000 O   0  0  0  0  0  0  0  0  0  0  0  0
   -5.2500   -3.8971    0.0000 N   0  0  0  0  0  0  0  0  0  0  0  0
   -6.0000   -2.5981    0.0000 C   0  0  0  0  0  0  0  0  0  0  0  0
   -7.5000   -2.5981    0.0000 C   0  0  0  0  0  0  0  0  0  0  0  0
   -8.2500   -1.2990    0.0000 C   0  0  0  0  0  0  0  0  0  0  0  0
   -7.5000    0.0000    0.0000 C   0  0  0  0  0  0  0  0  0  0  0  0
   -8.2500    1.2990    0.0000 C   0  0  0  0  0  0  0  0  0  0  0  0
   -9.7500    1.2990    0.0000 C   0  0  0  0  0  0  0  0  0  0  0  0
  -10.5000    0.0000    0.0000 C   0  0  0  0  0  0  0  0  0  0  0  0
   -9.7500   -1.2990    0.0000 C   0  0  0  0  0  0  0  0  0  0  0  0
   -5.2500   -1.2990    0.0000 C   0  0  0  0  0  0  0  0  0  0  0  0
   -3.7500   -1.2990    0.0000 O   0  0  0  0  0  0  0  0  0  0  0  0
   -6.0000    0.0000    0.0000 N   0  0  0  0  0  0  0  0  0  0  0  0
   -5.2500    1.2990    0.0000 C   0  0  0  0  0  0  0  0  0  0  0  0
   -3.7500    1.2990    0.0000 C   0  0  0  0  0  0  0  0  0  0  0  0
   -3.0000    2.5981    0.0000 C   0  0  0  0  0  0  0  0  0  0  0  0
   -3.7500    3.8971    0.0000 C   0  0  0  0  0  0  0  0  0  0  0  0
   -3.0000    5.1962    0.0000 C   0  0  0  0  0  0  0  0  0  0  0  0
   -1.5000    5.1962    0.0000 C   0  0  0  0  0  0  0  0  0  0  0  0
   -0.7500    3.8971    0.0000 C   0  0  0  0  0  0  0  0  0  0  0  0
   -1.5000    2.5981    0.0000 C   0  0  0  0  0  0  0  0  0  0  0  0
   -6.0000    2.5981    0.0000 C   0  0  0  0  0  0  0  0  0  0  0  0
   -7.5000    2.5981    0.0000 O   0  0  0  0  0  0  0  0  0  0  0  0
   -5.2500    3.8971    0.0000 N   0  0  0  0  0  0  0  0  0  0  0  0
   -6.0000    5.1962    0.0000 C   0  0  0  0  0  0  0  0  0  0  0  0
   -5.2500    6.4952    0.0000 C   0  0  0  0  0  0  0  0  0  0  0  0
   -6.0000    7.7942    0.0000 C   0  0  0  0  0  0  0  0  0  0  0  0
   -7.5000    7.7942    0.0000 C   0  0  0  0  0  0  0  0  0  0  0  0
   -8.2500    9.0933    0.0000 C   0  0  0  0  0  0  0  0  0  0  0  0
   -7.5000   10.3923    0.0000 C   0  0  0  0  0  0  0  0  0  0  0  0
   -6.0000   10.3923    0.0000 C   0  0  0  0  0  0  0  0  0  0  0  0
   -5.2500    9.0933    0.0000 C   0  0  0  0  0  0  0  0  0  0  0  0
   -7.5000    5.1962    0.0000 C   0  0  0  0  0  0  0  0  0  0  0  0
   -8.2500    3.8971    0.0000 O   0  0  0  0  0  0  0  0  0  0  0  0
   -8.2500    6.4952    0.0000 O   0  0  0  0  0  0  0  0  0  0  0  0
   -0.7500   -9.0933    0.0000 C   0  0  0  0  0  0  0  0  0  0  0  0
   -0.7500  -10.5933    0.0000 C   0  0  0  0  0  0  0  0  0  0  0  0
   -0.7500   -7.5933    0.0000 C   0  0  0  0  0  0  0  0  0  0  0  0
   -2.2500   -9.0933    0.0000 C   0  0  0  0  0  0  0  0  0  0  0  0
  1  2  1  0
  2  3  1  0
  2  4  1  0
  2  5  1  0
  5  6  1  0
  6  7  1  0
  7  8  1  0
  8  9  1  0
  9 10  1  0
 10 11  1  0
 11 12  1  0
 12 13  2  0
 13 14  1  0
 14 15  2  0
 15 16  1  0
 16 17  2  0
 10 18  1  0
 18 19  2  0
 18 20  1  0
 20 21  1  0
 21 22  1  0
 22 23  1  0
 23 24  2  0
 24 25  1  0
 25 26  2  0
 26 27  1  0
 27 28  2  0
 21 29  1  0
 29 30  2  0
 29 31  1  0
 31 32  1  0
 32 33  1  0
 33 34  1  0
 34 35  2  0
 35 36  1  0
 36 37  2  0
 37 38  1  0
 38 39  2  0
 32 40  1  0
 40 41  2  0
 40 42  1  0
 42 43  1  0
 43 44  1  0
 44 45  1  0
 45 46  2  0
 46 47  1  0
 47 48  2  0
 48 49  1  0
 49 50  2  0
 43 51  1  0
 51 52  2  0
 51 53  1  0
 53 54  1  0
 54 55  1  0
 55 56  1  0
 56 57  2  0
 57 58  1  0
 58 59  2  0
 59 60  1  0
 60 61  2  0
 54 62  1  0
 62 63  2  0
 62 64  1  0
  6 65  1  0
 65 66  1  0
 65 67  1  0
 65 68  1  0
 17 12  1  0
 28 23  1  0
 39 34  1  0
 50 45  1  0
 61 56  1  0
M  END
>  <Title>  (93) 
idAADOgen7

$$$$

     RDKit          2D

 71 76  0  0  0  0  0  0  0  0999 V2000
  -14.2500   -3.8971    0.0000 C   0  0  0  0  0  0  0  0  0  0  0  0
  -12.7500   -3.8971    0.0000 N   0  0  0  0  0  0  0  0  0  0  0  0
  -12.0000   -5.1962    0.0000 C   0  0  0  0  0  0  0  0  0  0  0  0
  -12.7500   -6.4952    0.0000 O   0  0  0  0  0  0  0  0  0  0  0  0
  -10.5000   -5.1962    0.0000 C   0  0  0  0  0  0  0  0  0  0  0  0
   -9.7500   -6.4952    0.0000 C   0  0  0  0  0  0  0  0  0  0  0  0
   -8.2500   -6.4952    0.0000 C   0  0  0  0  0  0  0  0  0  0  0  0
   -7.5000   -7.7942    0.0000 C   0  0  0  0  0  0  0  0  0  0  0  0
   -6.0000   -7.7942    0.0000 C   0  0  0  0  0  0  0  0  0  0  0  0
   -5.2500   -6.4952    0.0000 C   0  0  0  0  0  0  0  0  0  0  0  0
   -6.0000   -5.1962    0.0000 C   0  0  0  0  0  0  0  0  0  0  0  0
   -7.5000   -5.1962    0.0000 C   0  0  0  0  0  0  0  0  0  0  0  0
   -9.7500   -3.8971    0.0000 N   0  0  0  0  0  0  0  0  0  0  0  0
  -10.5000   -2.5981    0.0000 C   0  0  0  0  0  0  0  0  0  0  0  0
  -12.0000   -2.5981    0.0000 O   0  0  0  0  0  0  0  0  0  0  0  0
   -9.7500   -1.2990    0.0000 C   0  0  0  0  0  0  0  0  0  0  0  0
  -10.5000    0.0000    0.0000 C   0  0  0  0  0  0  0  0  0  0  0  0
   -9.7500    1.2990    0.0000 C   0  0  0  0  0  0  0  0  0  0  0  0
   -8.2500    1.2990    0.0000 C   0  0  0  0  0  0  0  0  0  0  0  0
   -7.5000    2.5981    0.0000 C   0  0  0  0  0  0  0  0  0  0  0  0
   -8.2500    3.8971    0.0000 C   0  0  0  0  0  0  0  0  0  0  0  0
   -9.7500    3.8971    0.0000 C   0  0  0  0  0  0  0  0  0  0  0  0
  -10.5000    2.5981    0.0000 C   0  0  0  0  0  0  0  0  0  0  0  0
   -8.2500   -1.2990    0.0000 N   0  0  0  0  0  0  0  0  0  0  0  0
   -7.5000   -2.5981    0.0000 C   0  0  0  0  0  0  0  0  0  0  0  0
   -8.2500   -3.8971    0.0000 O   0  0  0  0  0  0  0  0  0  0  0  0
   -6.0000   -2.5981    0.0000 C   0  0  0  0  0  0  0  0  0  0  0  0
   -5.2500   -3.8971    0.0000 C   0  0  0  0  0  0  0  0  0  0  0  0
   -3.7500   -3.8971    0.0000 C   0  0  0  0  0  0  0  0  0  0  0  0
   -3.0000   -2.5981    0.0000 C   0  0  0  0  0  0  0  0  0  0  0  0
   -1.5000   -2.5981    0.0000 C   0  0  0  0  0  0  0  0  0  0  0  0
   -0.7500   -3.8971    0.0000 C   0  0  0  0  0  0  0  0  0  0  0  0
   -1.5000   -5.1962    0.0000 C   0  0  0  0  0  0  0  0  0  0  0  0
   -3.0000   -5.1962    0.0000 C   0  0  0  0  0  0  0  0  0  0  0  0
   -5.2500   -1.2990    0.0000 N   0  0  0  0  0  0  0  0  0  0  0  0
   -6.0000    0.0000    0.0000 C   0  0  0  0  0  0  0  0  0  0  0  0
   -7.5000    0.0000    0.0000 O   0  0  0  0  0  0  0  0  0  0  0  0
   -5.2500    1.2990    0.0000 C   0  0  0  0  0  0  0  0  0  0  0  0
   -6.0000    2.5981    0.0000 C   0  0  0  0  0  0  0  0  0  0  0  0
   -5.2500    3.8971    0.0000 C   0  0  0  0  0  0  0  0  0  0  0  0
   -3.7500    3.8971    0.0000 C   0  0  0  0  0  0  0  0  0  0  0  0
   -3.0000    5.1962    0.0000 C   0  0  0  0  0  0  0  0  0  0  0  0
   -3.7500    6.4952    0.0000 C   0  0  0  0  0  0  0  0  0  0  0  0
   -5.2500    6.4952    0.0000 C   0  0  0  0  0  0  0  0  0  0  0  0
   -6.0000    5.1962    0.0000 C   0  0  0  0  0  0  0  0  0  0  0  0
   -3.7500    1.2990    0.0000 N   0  0  0  0  0  0  0  0  0  0  0  0
   -3.0000    2.5981    0.0000 C   0  0  0  0  0  0  0  0  0  0  0  0
   -1.5000    2.5981    0.0000 C   0  0  0  0  0  0  0  0  0  0  0  0
   -3.7500    3.8971    0.0000 C   0  0  0  0  0  0  0  0  0  0  0  0
   -3.0000    5.1962    0.0000 C   0  0  0  0  0  0  0  0  0  0  0  0
   -3.7500    6.4952    0.0000 C   0  0  0  0  0  0  0  0  0  0  0  0
   -3.0000    7.7942    0.0000 C   0  0  0  0  0  0  0  0  0  0  0  0
   -1.5000    7.7942    0.0000 C   0  0  0  0  0  0  0  0  0  0  0  0
   -0.7500    9.0933    0.0000 C   0  0  0  0  0  0  0  0  0  0  0  0
   -1.5000   10.3923    0.0000 C   0  0  0  0  0  0  0  0  0  0  0  0
   -3.0000   10.3923    0.0000 C   0  0  0  0  0  0  0  0  0  0  0  0
   -3.7500    9.0933    0.0000 C   0  0  0  0  0  0  0  0  0  0  0  0
   -1.5000    5.1962    0.0000 C   0  0  0  0  0  0  0  0  0  0  0  0
   -0.7500    3.8971    0.0000 O   0  0  0  0  0  0  0  0  0  0  0  0
   -0.7500    6.4952    0.0000 N   0  0  0  0  0  0  0  0  0  0  0  0
    0.7500    6.4952    0.0000 C   0  0  0  0  0  0  0  0  0  0  0  0
    1.5000    7.7942    0.0000 C   0  0  0  0  0  0  0  0  0  0  0  0
    3.0000    7.7942    0.0000 C   0  0  0  0  0  0  0  0  0  0  0  0
    3.7500    6.4952    0.0000 C   0  0  0  0  0  0  0  0  0  0  0  0
    5.2500    6.4952    0.0000 C   0  0  0  0  0  0  0  0  0  0  0  0
    6.0000    7.7942    0.0000 C   0  0  0  0  0  0  0  0  0  0  0  0
    5.2500    9.0933    0.0000 C   0  0  0  0  0  0  0  0  0  0  0  0
    3.7500    9.0933    0.0000 C   0  0  0  0  0  0  0  0  0  0  0  0
    1.5000    5.1962    0.0000 C   0  0  0  0  0  0  0  0  0  0  0  0
    0.7500    3.8971    0.0000 O   0  0  0  0  0  0  0  0  0  0  0  0
    3.0000    5.1962    0.0000 O   0  0  0  0  0  0  0  0  0  0  0  0
  1  2  1  0
  2  3  1  0
  3  4  2  0
  3  5  1  0
  5  6  1  0
  6  7  1  0
  7  8  2  0
  8  9  1  0
  9 10  2  0
 10 11  1  0
 11 12  2  0
  5 13  1  0
 13 14  1  0
 14 15  2  0
 14 16  1  0
 16 17  1  0
 17 18  1  0
 18 19  2  0
 19 20  1  0
 20 21  2  0
 21 22  1  0
 22 23  2  0
 16 24  1  0
 24 25  1  0
 25 26  2  0
 25 27  1  0
 27 28  1  0
 28 29  1  0
 29 30  2  0
 30 31  1  0
 31 32  2  0
 32 33  1  0
 33 34  2  0
 27 35  1  0
 35 36  1  0
 36 37  2  0
 36 38  1  0
 38 39  1  0
 39 40  1  0
 40 41  2  0
 41 42  1  0
 42 43  2  0
 43 44  1  0
 44 45  2  0
 38 46  1  0
 46 47  1  0
 47 48  1  0
 47 49  1  0
 49 50  1  0
 50 51  1  0
 51 52  1  0
 52 53  2  0
 53 54  1  0
 54 55  2  0
 55 56  1  0
 56 57  2  0
 50 58  1  0
 58 59  2  0
 58 60  1  0
 60 61  1  0
 61 62  1  0
 62 63  1  0
 63 64  2  0
 64 65  1  0
 65 66  2  0
 66 67  1  0
 67 68  2  0
 61 69  1  0
 69 70  2  0
 69 71  1  0
 12  7  1  0
 23 18  1  0
 34 29  1  0
 45 40  1  0
 57 52  1  0
 68 63  1  0
M  END
>  <Title>  (94) 
idAADPgen7

$$$$

     RDKit          2D

 57 62  0  0  0  0  0  0  0  0999 V2000
    4.5000   -2.5981    0.0000 O   0  0  0  0  0  0  0  0  0  0  0  0
    5.2500   -3.8971    0.0000 C   0  0  0  0  0  0  0  0  0  0  0  0
    6.7500   -3.8971    0.0000 O   0  0  0  0  0  0  0  0  0  0  0  0
    4.5000   -5.1962    0.0000 C   0  0  0  0  0  0  0  0  0  0  0  0
    5.2500   -6.4952    0.0000 C   0  0  0  0  0  0  0  0  0  0  0  0
    6.7500   -6.4952    0.0000 C   0  0  0  0  0  0  0  0  0  0  0  0
    7.5000   -7.7942    0.0000 C   0  0  0  0  0  0  0  0  0  0  0  0
    9.0000   -7.7942    0.0000 C   0  0  0  0  0  0  0  0  0  0  0  0
    9.7500   -6.4952    0.0000 C   0  0  0  0  0  0  0  0  0  0  0  0
    9.0000   -5.1962    0.0000 C   0  0  0  0  0  0  0  0  0  0  0  0
    7.5000   -5.1962    0.0000 C   0  0  0  0  0  0  0  0  0  0  0  0
    3.0000   -5.1962    0.0000 N   0  0  0  0  0  0  0  0  0  0  0  0
    2.2500   -3.8971    0.0000 C   0  0  0  0  0  0  0  0  0  0  0  0
    3.0000   -2.5981    0.0000 O   0  0  0  0  0  0  0  0  0  0  0  0
    0.7500   -3.8971    0.0000 C   0  0  0  0  0  0  0  0  0  0  0  0
   -0.0000   -5.1962    0.0000 C   0  0  0  0  0  0  0  0  0  0  0  0
    0.7500   -6.4952    0.0000 C   0  0  0  0  0  0  0  0  0  0  0  0
   -0.0000   -7.7942    0.0000 C   0  0  0  0  0  0  0  0  0  0  0  0
    0.7500   -9.0933    0.0000 C   0  0  0  0  0  0  0  0  0  0  0  0
    2.2500   -9.0933    0.0000 C   0  0  0  0  0  0  0  0  0  0  0  0
    3.0000   -7.7942    0.0000 C   0  0  0  0  0  0  0  0  0  0  0  0
    2.2500   -6.4952    0.0000 C   0  0  0  0  0  0  0  0  0  0  0  0
   -0.0000   -2.5981    0.0000 N   0  0  0  0  0  0  0  0  0  0  0  0
    0.7500   -1.2990    0.0000 C   0  0  0  0  0  0  0  0  0  0  0  0
    2.2500   -1.2990    0.0000 O   0  0  0  0  0  0  0  0  0  0  0  0
   -0.0000    0.0000    0.0000 C   0  0  0  0  0  0  0  0  0  0  0  0
   -1.5000    0.0000    0.0000 C   0  0  0  0  0  0  0  0  0  0  0  0
   -0.7500   -1.2990    0.0000 C   0  0  0  0  0  0  0  0  0  0  0  0
    0.7500   -1.2990    0.0000 C   0  0  0  0  0  0  0  0  0  0  0  0
    1.5000   -2.5981    0.0000 N   0  0  0  0  0  0  0  0  0  0  0  0
    0.7500   -3.8971    0.0000 C   0  0  0  0  0  0  0  0  0  0  0  0
   -0.7500   -3.8971    0.0000 O   0  0  0  0  0  0  0  0  0  0  0  0
    1.5000   -5.1962    0.0000 C   0  0  0  0  0  0  0  0  0  0  0  0
    0.7500   -6.4952    0.0000 C   0  0  0  0  0  0  0  0  0  0  0  0
    1.5000   -7.7942    0.0000 C   0  0  0  0  0  0  0  0  0  0  0  0
    0.7500   -9.0933    0.0000 C   0  0  0  0  0  0  0  0  0  0  0  0
    1.5000  -10.3923    0.0000 C   0  0  0  0  0  0  0  0  0  0  0  0
    3.0000  -10.3923    0.0000 C   0  0  0  0  0  0  0  0  0  0  0  0
    3.7500   -9.0933    0.0000 C   0  0  0  0  0  0  0  0  0  0  0  0
    3.0000   -7.7942    0.0000 C   0  0  0  0  0  0  0  0  0  0  0  0
    3.0000   -5.1962    0.0000 C   0  0  0  0  0  0  0  0  0  0  0  0
    3.7500   -3.8971    0.0000 O   0  0  0  0  0  0  0  0  0  0  0  0
    3.7500   -6.4952    0.0000 N   0  0  0  0  0  0  0  0  0  0  0  0
    5.2500   -6.4952    0.0000 C   0  0  0  0  0  0  0  0  0  0  0  0
    6.0000   -7.7942    0.0000 C   0  0  0  0  0  0  0  0  0  0  0  0
    7.5000   -7.7942    0.0000 C   0  0  0  0  0  0  0  0  0  0  0  0
    8.2500   -9.0933    0.0000 C   0  0  0  0  0  0  0  0  0  0  0  0
    9.7500   -9.0933    0.0000 C   0  0  0  0  0  0  0  0  0  0  0  0
   10.5000   -7.7942    0.0000 C   0  0  0  0  0  0  0  0  0  0  0  0
    9.7500   -6.4952    0.0000 C   0  0  0  0  0  0  0  0  0  0  0  0
    8.2500   -6.4952    0.0000 C   0  0  0  0  0  0  0  0  0  0  0  0
    6.0000   -5.1962    0.0000 C   0  0  0  0  0  0  0  0  0  0  0  0
    5.5866   -3.7542    0.0000 O   0  0  0  0  0  0  0  0  0  0  0  0
    7.4554   -4.8332    0.0000 O   0  0  0  0  0  0  0  0  0  0  0  0
    1.5000    0.0000    0.0000 C   0  0  0  0  0  0  0  0  0  0  0  0
    0.7500    1.2990    0.0000 C   0  0  0  0  0  0  0  0  0  0  0  0
   -0.7500    1.2990    0.0000 C   0  0  0  0  0  0  0  0  0  0  0  0
  1  2  2  0
  2  3  1  0
  2  4  1  0
  4  5  1  0
  5  6  1  0
  6  7  2  0
  7  8  1  0
  8  9  2  0
  9 10  1  0
 10 11  2  0
  4 12  1  0
 12 13  1  0
 13 14  2  0
 13 15  1  0
 15 16  1  0
 16 17  1  0
 17 18  2  0
 18 19  1  0
 19 20  2  0
 20 21  1  0
 21 22  2  0
 15 23  1  0
 23 24  1  0
 24 25  2  0
 24 26  1  0
 26 27  1  0
 27 28  1  0
 28 29  1  0
 29 30  1  0
 30 31  1  0
 31 32  2  0
 31 33  1  0
 33 34  1  0
 34 35  1  0
 35 36  2  0
 36 37  1  0
 37 38  2  0
 38 39  1  0
 39 40  2  0
 33 41  1  0
 41 42  2  0
 41 43  1  0
 43 44  1  0
 44 45  1  0
 45 46  1  0
 46 47  2  0
 47 48  1  0
 48 49  2  0
 49 50  1  0
 50 51  2  0
 44 52  1  0
 52 53  2  0
 52 54  1  0
 29 55  1  0
 55 56  1  0
 56 57  1  0
 11  6  1  0
 22 17  1  0
 56 26  1  0
 57 27  1  0
 40 35  1  0
 51 46  1  0
M  END
>  <Title>  (95) 
idAADQgen7

$$$$

     RDKit          2D

 71 76  0  0  0  0  0  0  0  0999 V2000
   -3.8473    2.1037    0.0000 C   0  0  0  0  0  0  0  0  0  0  0  0
   -4.9620    1.1000    0.0000 C   0  0  0  0  0  0  0  0  0  0  0  0
   -6.0767    0.0963    0.0000 C   0  0  0  0  0  0  0  0  0  0  0  0
   -5.9657    2.2147    0.0000 C   0  0  0  0  0  0  0  0  0  0  0  0
   -3.9583   -0.0147    0.0000 C   0  0  0  0  0  0  0  0  0  0  0  0
   -4.4218   -1.4413    0.0000 N   0  0  0  0  0  0  0  0  0  0  0  0
   -3.4182   -2.5560    0.0000 C   0  0  0  0  0  0  0  0  0  0  0  0
   -1.9509   -2.2442    0.0000 O   0  0  0  0  0  0  0  0  0  0  0  0
   -3.8817   -3.9826    0.0000 C   0  0  0  0  0  0  0  0  0  0  0  0
   -5.3083   -4.4462    0.0000 C   0  0  0  0  0  0  0  0  0  0  0  0
   -5.3083   -5.9462    0.0000 C   0  0  0  0  0  0  0  0  0  0  0  0
   -3.8817   -6.4097    0.0000 C   0  0  0  0  0  0  0  0  0  0  0  0
   -3.0000   -5.1962    0.0000 C   0  0  0  0  0  0  0  0  0  0  0  0
   -1.5000   -5.1962    0.0000 C   0  0  0  0  0  0  0  0  0  0  0  0
   -0.7500   -6.4952    0.0000 O   0  0  0  0  0  0  0  0  0  0  0  0
   -0.7500   -3.8971    0.0000 N   0  0  0  0  0  0  0  0  0  0  0  0
    0.7500   -3.8971    0.0000 C   0  0  0  0  0  0  0  0  0  0  0  0
    1.5000   -2.5981    0.0000 C   0  0  0  0  0  0  0  0  0  0  0  0
    0.7500   -1.2990    0.0000 C   0  0  0  0  0  0  0  0  0  0  0  0
    1.5000    0.0000    0.0000 C   0  0  0  0  0  0  0  0  0  0  0  0
    0.7500    1.2990    0.0000 C   0  0  0  0  0  0  0  0  0  0  0  0
   -0.7500    1.2990    0.0000 C   0  0  0  0  0  0  0  0  0  0  0  0
   -1.5000    0.0000    0.0000 C   0  0  0  0  0  0  0  0  0  0  0  0
   -0.7500   -1.2990    0.0000 C   0  0  0  0  0  0  0  0  0  0  0  0
    1.5000   -5.1962    0.0000 C   0  0  0  0  0  0  0  0  0  0  0  0
    3.0000   -5.1962    0.0000 O   0  0  0  0  0  0  0  0  0  0  0  0
    0.7500   -6.4952    0.0000 N   0  0  0  0  0  0  0  0  0  0  0  0
    1.5000   -7.7942    0.0000 C   0  0  0  0  0  0  0  0  0  0  0  0
    0.7500   -9.0933    0.0000 C   0  0  0  0  0  0  0  0  0  0  0  0
    1.5000  -10.3923    0.0000 C   0  0  0  0  0  0  0  0  0  0  0  0
    0.7500  -11.6913    0.0000 C   0  0  0  0  0  0  0  0  0  0  0  0
    1.5000  -12.9904    0.0000 C   0  0  0  0  0  0  0  0  0  0  0  0
    3.0000  -12.9904    0.0000 C   0  0  0  0  0  0  0  0  0  0  0  0
    3.7500  -11.6913    0.0000 C   0  0  0  0  0  0  0  0  0  0  0  0
    3.0000  -10.3923    0.0000 C   0  0  0  0  0  0  0  0  0  0  0  0
    3.0000   -7.7942    0.0000 C   0  0  0  0  0  0  0  0  0  0  0  0
    3.7500   -6.4952    0.0000 O   0  0  0  0  0  0  0  0  0  0  0  0
    3.7500   -9.0933    0.0000 N   0  0  0  0  0  0  0  0  0  0  0  0
    5.2500   -9.0933    0.0000 C   0  0  0  0  0  0  0  0  0  0  0  0
    6.0000  -10.3923    0.0000 C   0  0  0  0  0  0  0  0  0  0  0  0
    7.5000  -10.3923    0.0000 C   0  0  0  0  0  0  0  0  0  0  0  0
    8.2500  -11.6913    0.0000 C   0  0  0  0  0  0  0  0  0  0  0  0
    9.7500  -11.6913    0.0000 C   0  0  0  0  0  0  0  0  0  0  0  0
   10.5000  -10.3923    0.0000 C   0  0  0  0  0  0  0  0  0  0  0  0
    9.7500   -9.0933    0.0000 C   0  0  0  0  0  0  0  0  0  0  0  0
    8.2500   -9.0933    0.0000 C   0  0  0  0  0  0  0  0  0  0  0  0
    6.0000   -7.7942    0.0000 C   0  0  0  0  0  0  0  0  0  0  0  0
    5.2500   -6.4952    0.0000 O   0  0  0  0  0  0  0  0  0  0  0  0
    7.5000   -7.7942    0.0000 N   0  0  0  0  0  0  0  0  0  0  0  0
    8.2500   -6.4952    0.0000 C   0  0  0  0  0  0  0  0  0  0  0  0
    9.7500   -6.4952    0.0000 C   0  0  0  0  0  0  0  0  0  0  0  0
   10.5000   -5.1962    0.0000 C   0  0  0  0  0  0  0  0  0  0  0  0
   12.0000   -5.1962    0.0000 C   0  0  0  0  0  0  0  0  0  0  0  0
   12.7500   -3.8971    0.0000 C   0  0  0  0  0  0  0  0  0  0  0  0
   12.0000   -2.5981    0.0000 C   0  0  0  0  0  0  0  0  0  0  0  0
   10.5000   -2.5981    0.0000 C   0  0  0  0  0  0  0  0  0  0  0  0
    9.7500   -3.8971    0.0000 C   0  0  0  0  0  0  0  0  0  0  0  0
    7.5000   -5.1962    0.0000 C   0  0  0  0  0  0  0  0  0  0  0  0
    6.0000   -5.1962    0.0000 O   0  0  0  0  0  0  0  0  0  0  0  0
    8.2500   -3.8971    0.0000 N   0  0  0  0  0  0  0  0  0  0  0  0
    7.5000   -2.5981    0.0000 C   0  0  0  0  0  0  0  0  0  0  0  0
    8.2500   -1.2990    0.0000 C   0  0  0  0  0  0  0  0  0  0  0  0
    7.5000   -0.0000    0.0000 C   0  0  0  0  0  0  0  0  0  0  0  0
    8.2500    1.2990    0.0000 C   0  0  0  0  0  0  0  0  0  0  0  0
    7.5000    2.5981    0.0000 C   0  0  0  0  0  0  0  0  0  0  0  0
    6.0000    2.5981    0.0000 C   0  0  0  0  0  0  0  0  0  0  0  0
    5.2500    1.2990    0.0000 C   0  0  0  0  0  0  0  0  0  0  0  0
    6.0000    0.0000    0.0000 C   0  0  0  0  0  0  0  0  0  0  0  0
    6.0000   -2.5981    0.0000 C   0  0  0  0  0  0  0  0  0  0  0  0
    5.2500   -3.8971    0.0000 O   0  0  0  0  0  0  0  0  0  0  0  0
    5.2500   -1.2990    0.0000 O   0  0  0  0  0  0  0  0  0  0  0  0
  1  2  1  0
  2  3  1  0
  2  4  1  0
  2  5  1  0
  5  6  1  0
  6  7  1  0
  7  8  2  0
  7  9  1  0
  9 10  1  0
 10 11  1  0
 11 12  1  0
 12 13  1  0
 13 14  1  0
 14 15  2  0
 14 16  1  0
 16 17  1  0
 17 18  1  0
 18 19  1  0
 19 20  2  0
 20 21  1  0
 21 22  2  0
 22 23  1  0
 23 24  2  0
 17 25  1  0
 25 26  2  0
 25 27  1  0
 27 28  1  0
 28 29  1  0
 29 30  1  0
 30 31  2  0
 31 32  1  0
 32 33  2  0
 33 34  1  0
 34 35  2  0
 28 36  1  0
 36 37  2  0
 36 38  1  0
 38 39  1  0
 39 40  1  0
 40 41  1  0
 41 42  2  0
 42 43  1  0
 43 44  2  0
 44 45  1  0
 45 46  2  0
 39 47  1  0
 47 48  2  0
 47 49  1  0
 49 50  1  0
 50 51  1  0
 51 52  1  0
 52 53  2  0
 53 54  1  0
 54 55  2  0
 55 56  1  0
 56 57  2  0
 50 58  1  0
 58 59  2  0
 58 60  1  0
 60 61  1  0
 61 62  1  0
 62 63  1  0
 63 64  2  0
 64 65  1  0
 65 66  2  0
 66 67  1  0
 67 68  2  0
 61 69  1  0
 69 70  2  0
 69 71  1  0
 13  9  1  0
 24 19  1  0
 35 30  1  0
 46 41  1  0
 57 52  1  0
 68 63  1  0
M  END
>  <Title>  (96) 
idAADRgen7

$$$$

     RDKit          2D

 21 22  0  0  0  0  0  0  0  0999 V2000
    5.2500   -2.7990    0.0000 C   0  0  0  0  0  0  0  0  0  0  0  0
    5.2500   -1.2990    0.0000 C   0  0  0  0  0  0  0  0  0  0  0  0
    5.2500    0.2010    0.0000 C   0  0  0  0  0  0  0  0  0  0  0  0
    6.7500   -1.2990    0.0000 C   0  0  0  0  0  0  0  0  0  0  0  0
    3.7500   -1.2990    0.0000 C   0  0  0  0  0  0  0  0  0  0  0  0
    3.0000    0.0000    0.0000 C   0  0  0  0  0  0  0  0  0  0  0  0
    3.7500    1.2990    0.0000 O   0  0  0  0  0  0  0  0  0  0  0  0
    1.5000    0.0000    0.0000 N   0  0  0  0  0  0  0  0  0  0  0  0
    0.7500   -1.2990    0.0000 C   0  0  0  0  0  0  0  0  0  0  0  0
   -0.7500   -1.2990    0.0000 C   0  0  0  0  0  0  0  0  0  0  0  0
   -1.5000    0.0000    0.0000 N   0  0  0  0  0  0  0  0  0  0  0  0
   -3.0000    0.0000    0.0000 C   0  0  0  0  0  0  0  0  0  0  0  0
   -3.7500   -1.2990    0.0000 O   0  0  0  0  0  0  0  0  0  0  0  0
   -3.7500    1.2990    0.0000 C   0  0  0  0  0  0  0  0  0  0  0  0
   -3.0000    2.5981    0.0000 C   0  0  0  0  0  0  0  0  0  0  0  0
   -3.7500    3.8971    0.0000 C   0  0  0  0  0  0  0  0  0  0  0  0
   -5.2500    3.8971    0.0000 C   0  0  0  0  0  0  0  0  0  0  0  0
   -6.0000    2.5981    0.0000 C   0  0  0  0  0  0  0  0  0  0  0  0
   -5.2500    1.2990    0.0000 C   0  0  0  0  0  0  0  0  0  0  0  0
   -0.7500    1.2990    0.0000 C   0  0  0  0  0  0  0  0  0  0  0  0
    0.7500    1.2990    0.0000 C   0  0  0  0  0  0  0  0  0  0  0  0
  1  2  1  0
  2  3  1  0
  2  4  1  0
  2  5  1  0
  5  6  1  0
  6  7  2  0
  6  8  1  0
  8  9  1  0
  9 10  1  0
 10 11  1  0
 11 12  1  0
 12 13  2  0
 12 14  1  0
 14 15  2  0
 15 16  1  0
 16 17  2  0
 17 18  1  0
 18 19  2  0
 11 20  1  0
 20 21  1  0
 21  8  1  0
 19 14  1  0
M  END
>  <Title>  (97) 
idAADSgen7

$$$$

     RDKit          2D

 73 81  0  0  0  0  0  0  0  0999 V2000
   -1.9605    4.6312    0.0000 O   0  0  0  0  0  0  0  0  0  0  0  0
   -3.2463    3.8586    0.0000 C   0  0  0  0  0  0  0  0  0  0  0  0
   -3.4031    2.3668    0.0000 N   0  0  0  0  0  0  0  0  0  0  0  0
   -2.1895    1.4851    0.0000 C   0  0  0  0  0  0  0  0  0  0  0  0
   -0.8192    2.0952    0.0000 C   0  0  0  0  0  0  0  0  0  0  0  0
    0.3943    1.2135    0.0000 C   0  0  0  0  0  0  0  0  0  0  0  0
    1.2760    0.0000    0.0000 C   0  0  0  0  0  0  0  0  0  0  0  0
    0.3943   -1.2135    0.0000 C   0  0  0  0  0  0  0  0  0  0  0  0
   -1.0323   -0.7500    0.0000 C   0  0  0  0  0  0  0  0  0  0  0  0
   -2.3463   -0.0067    0.0000 C   0  0  0  0  0  0  0  0  0  0  0  0
   -1.0323    0.7500    0.0000 N   0  0  0  0  0  0  0  0  0  0  0  0
   -2.2458    1.6317    0.0000 C   0  0  0  0  0  0  0  0  0  0  0  0
   -2.0890    3.1235    0.0000 C   0  0  0  0  0  0  0  0  0  0  0  0
   -3.3025    4.0051    0.0000 C   0  0  0  0  0  0  0  0  0  0  0  0
   -3.1458    5.4969    0.0000 C   0  0  0  0  0  0  0  0  0  0  0  0
   -4.3593    6.3786    0.0000 C   0  0  0  0  0  0  0  0  0  0  0  0
   -5.7296    5.7685    0.0000 C   0  0  0  0  0  0  0  0  0  0  0  0
   -5.8864    4.2767    0.0000 C   0  0  0  0  0  0  0  0  0  0  0  0
   -4.6729    3.3950    0.0000 C   0  0  0  0  0  0  0  0  0  0  0  0
   -4.4598    4.7402    0.0000 C   0  0  0  0  0  0  0  0  0  0  0  0
   -4.3030    6.2320    0.0000 C   0  0  0  0  0  0  0  0  0  0  0  0
   -5.5165    7.1137    0.0000 C   0  0  0  0  0  0  0  0  0  0  0  0
   -6.8869    6.5036    0.0000 C   0  0  0  0  0  0  0  0  0  0  0  0
   -7.0436    5.0118    0.0000 C   0  0  0  0  0  0  0  0  0  0  0  0
   -5.8301    4.1301    0.0000 C   0  0  0  0  0  0  0  0  0  0  0  0
   -5.6733    5.6219    0.0000 C   0  0  0  0  0  0  0  0  0  0  0  0
   -4.4598    4.7402    0.0000 C   0  0  0  0  0  0  0  0  0  0  0  0
   -3.2778    5.6638    0.0000 O   0  0  0  0  0  0  0  0  0  0  0  0
   -4.6166    3.2485    0.0000 N   0  0  0  0  0  0  0  0  0  0  0  0
   -3.4031    2.3668    0.0000 C   0  0  0  0  0  0  0  0  0  0  0  0
   -3.5599    0.8750    0.0000 C   0  0  0  0  0  0  0  0  0  0  0  0
   -2.3463   -0.0067    0.0000 C   0  0  0  0  0  0  0  0  0  0  0  0
   -2.5031   -1.4985    0.0000 C   0  0  0  0  0  0  0  0  0  0  0  0
   -1.2896   -2.3801    0.0000 C   0  0  0  0  0  0  0  0  0  0  0  0
    0.0807   -1.7700    0.0000 C   0  0  0  0  0  0  0  0  0  0  0  0
    0.2375   -0.2783    0.0000 C   0  0  0  0  0  0  0  0  0  0  0  0
   -0.9760    0.6034    0.0000 C   0  0  0  0  0  0  0  0  0  0  0  0
   -2.0328    2.9769    0.0000 C   0  0  0  0  0  0  0  0  0  0  0  0
   -1.6953    4.4384    0.0000 O   0  0  0  0  0  0  0  0  0  0  0  0
   -0.8192    2.0952    0.0000 N   0  0  0  0  0  0  0  0  0  0  0  0
    0.5511    2.7053    0.0000 C   0  0  0  0  0  0  0  0  0  0  0  0
    1.7646    1.8236    0.0000 C   0  0  0  0  0  0  0  0  0  0  0  0
    3.1349    2.4337    0.0000 C   0  0  0  0  0  0  0  0  0  0  0  0
    4.3485    1.5521    0.0000 C   0  0  0  0  0  0  0  0  0  0  0  0
    5.7188    2.1622    0.0000 C   0  0  0  0  0  0  0  0  0  0  0  0
    5.8756    3.6539    0.0000 C   0  0  0  0  0  0  0  0  0  0  0  0
    4.6620    4.5356    0.0000 C   0  0  0  0  0  0  0  0  0  0  0  0
    3.2917    3.9255    0.0000 C   0  0  0  0  0  0  0  0  0  0  0  0
    0.7079    4.1971    0.0000 C   0  0  0  0  0  0  0  0  0  0  0  0
   -0.5056    5.0788    0.0000 O   0  0  0  0  0  0  0  0  0  0  0  0
    2.0782    4.8072    0.0000 N   0  0  0  0  0  0  0  0  0  0  0  0
    2.2350    6.2990    0.0000 C   0  0  0  0  0  0  0  0  0  0  0  0
    3.6053    6.9091    0.0000 C   0  0  0  0  0  0  0  0  0  0  0  0
    3.7621    8.4009    0.0000 C   0  0  0  0  0  0  0  0  0  0  0  0
    5.1324    9.0110    0.0000 C   0  0  0  0  0  0  0  0  0  0  0  0
    5.2892   10.5028    0.0000 C   0  0  0  0  0  0  0  0  0  0  0  0
    4.0757   11.3844    0.0000 C   0  0  0  0  0  0  0  0  0  0  0  0
    2.7054   10.7743    0.0000 C   0  0  0  0  0  0  0  0  0  0  0  0
    2.5486    9.2825    0.0000 C   0  0  0  0  0  0  0  0  0  0  0  0
    1.0215    7.1807    0.0000 C   0  0  0  0  0  0  0  0  0  0  0  0
   -0.3488    6.5706    0.0000 O   0  0  0  0  0  0  0  0  0  0  0  0
    1.1783    8.6724    0.0000 N   0  0  0  0  0  0  0  0  0  0  0  0
   -0.0353    9.5541    0.0000 C   0  0  0  0  0  0  0  0  0  0  0  0
    0.1215   11.0459    0.0000 C   0  0  0  0  0  0  0  0  0  0  0  0
   -1.0920   11.9276    0.0000 C   0  0  0  0  0  0  0  0  0  0  0  0
   -0.9352   13.4194    0.0000 C   0  0  0  0  0  0  0  0  0  0  0  0
   -2.1487   14.3010    0.0000 C   0  0  0  0  0  0  0  0  0  0  0  0
   -3.5190   13.6909    0.0000 C   0  0  0  0  0  0  0  0  0  0  0  0
   -3.6758   12.1992    0.0000 C   0  0  0  0  0  0  0  0  0  0  0  0
   -2.4623   11.3175    0.0000 C   0  0  0  0  0  0  0  0  0  0  0  0
   -1.4056    8.9440    0.0000 C   0  0  0  0  0  0  0  0  0  0  0  0
   -1.5624    7.4522    0.0000 O   0  0  0  0  0  0  0  0  0  0  0  0
   -2.6191    9.8257    0.0000 O   0  0  0  0  0  0  0  0  0  0  0  0
  1  2  2  0
  2  3  1  0
  3  4  1  0
  4  5  1  0
  5  6  1  0
  6  7  1  0
  7  8  1  0
  8  9  1  0
  9 10  1  0
  9 11  1  0
 11 12  1  0
 12 13  1  0
 13 14  1  0
 14 15  2  0
 15 16  1  0
 16 17  2  0
 17 18  1  0
 18 19  2  0
  2 20  1  0
 20 21  1  0
 21 22  1  0
 22 23  1  0
 23 24  1  0
 24 25  1  0
 24 26  1  0
 26 27  1  0
 27 28  2  0
 27 29  1  0
 29 30  1  0
 30 31  1  0
 31 32  1  0
 32 33  2  0
 33 34  1  0
 34 35  2  0
 35 36  1  0
 36 37  2  0
 30 38  1  0
 38 39  2  0
 38 40  1  0
 40 41  1  0
 41 42  1  0
 42 43  1  0
 43 44  2  0
 44 45  1  0
 45 46  2  0
 46 47  1  0
 47 48  2  0
 41 49  1  0
 49 50  2  0
 49 51  1  0
 51 52  1  0
 52 53  1  0
 53 54  1  0
 54 55  2  0
 55 56  1  0
 56 57  2  0
 57 58  1  0
 58 59  2  0
 52 60  1  0
 60 61  2  0
 60 62  1  0
 62 63  1  0
 63 64  1  0
 64 65  1  0
 65 66  2  0
 66 67  1  0
 67 68  2  0
 68 69  1  0
 69 70  2  0
 63 71  1  0
 71 72  2  0
 71 73  1  0
 10  4  1  0
 19 14  1  0
 25 20  1  0
 37 32  1  0
 48 43  1  0
 59 54  1  0
 70 65  1  0
 11  6  1  0
 26 22  1  0
M  END
>  <Title>  (98) 
idAADTgen7

$$$$

     RDKit          2D

 57 64  0  0  0  0  0  0  0  0999 V2000
   -1.9605    4.6312    0.0000 O   0  0  0  0  0  0  0  0  0  0  0  0
   -3.2463    3.8586    0.0000 C   0  0  0  0  0  0  0  0  0  0  0  0
   -3.4031    2.3668    0.0000 N   0  0  0  0  0  0  0  0  0  0  0  0
   -2.1895    1.4851    0.0000 C   0  0  0  0  0  0  0  0  0  0  0  0
   -0.8192    2.0952    0.0000 C   0  0  0  0  0  0  0  0  0  0  0  0
    0.3943    1.2135    0.0000 C   0  0  0  0  0  0  0  0  0  0  0  0
    1.2760    0.0000    0.0000 C   0  0  0  0  0  0  0  0  0  0  0  0
    0.3943   -1.2135    0.0000 C   0  0  0  0  0  0  0  0  0  0  0  0
   -1.0323   -0.7500    0.0000 C   0  0  0  0  0  0  0  0  0  0  0  0
   -2.3463   -0.0067    0.0000 C   0  0  0  0  0  0  0  0  0  0  0  0
   -1.0323    0.7500    0.0000 N   0  0  0  0  0  0  0  0  0  0  0  0
   -2.2458    1.6317    0.0000 C   0  0  0  0  0  0  0  0  0  0  0  0
   -2.0890    3.1235    0.0000 C   0  0  0  0  0  0  0  0  0  0  0  0
   -3.3025    4.0051    0.0000 C   0  0  0  0  0  0  0  0  0  0  0  0
   -3.1458    5.4969    0.0000 C   0  0  0  0  0  0  0  0  0  0  0  0
   -4.3593    6.3786    0.0000 C   0  0  0  0  0  0  0  0  0  0  0  0
   -5.7296    5.7685    0.0000 C   0  0  0  0  0  0  0  0  0  0  0  0
   -6.9431    6.6502    0.0000 C   0  0  0  0  0  0  0  0  0  0  0  0
   -6.7863    8.1420    0.0000 C   0  0  0  0  0  0  0  0  0  0  0  0
   -7.9999    9.0236    0.0000 C   0  0  0  0  0  0  0  0  0  0  0  0
   -9.3702    8.4135    0.0000 C   0  0  0  0  0  0  0  0  0  0  0  0
   -9.5270    6.9217    0.0000 C   0  0  0  0  0  0  0  0  0  0  0  0
   -8.3134    6.0401    0.0000 N   0  0  0  0  0  0  0  0  0  0  0  0
   -5.8864    4.2767    0.0000 C   0  0  0  0  0  0  0  0  0  0  0  0
   -4.6729    3.3950    0.0000 C   0  0  0  0  0  0  0  0  0  0  0  0
   -4.4598    4.7402    0.0000 C   0  0  0  0  0  0  0  0  0  0  0  0
   -4.3030    6.2320    0.0000 C   0  0  0  0  0  0  0  0  0  0  0  0
   -5.5165    7.1137    0.0000 C   0  0  0  0  0  0  0  0  0  0  0  0
   -6.8869    6.5036    0.0000 C   0  0  0  0  0  0  0  0  0  0  0  0
   -7.0436    5.0118    0.0000 C   0  0  0  0  0  0  0  0  0  0  0  0
   -5.8301    4.1301    0.0000 C   0  0  0  0  0  0  0  0  0  0  0  0
   -5.6733    5.6219    0.0000 C   0  0  0  0  0  0  0  0  0  0  0  0
   -4.4598    4.7402    0.0000 C   0  0  0  0  0  0  0  0  0  0  0  0
   -3.2778    5.6638    0.0000 O   0  0  0  0  0  0  0  0  0  0  0  0
   -4.6166    3.2485    0.0000 N   0  0  0  0  0  0  0  0  0  0  0  0
   -3.4031    2.3668    0.0000 C   0  0  0  0  0  0  0  0  0  0  0  0
   -3.5599    0.8750    0.0000 C   0  0  0  0  0  0  0  0  0  0  0  0
   -2.3463   -0.0067    0.0000 C   0  0  0  0  0  0  0  0  0  0  0  0
   -2.5031   -1.4985    0.0000 C   0  0  0  0  0  0  0  0  0  0  0  0
   -1.2896   -2.3801    0.0000 C   0  0  0  0  0  0  0  0  0  0  0  0
    0.0807   -1.7700    0.0000 C   0  0  0  0  0  0  0  0  0  0  0  0
    0.2375   -0.2783    0.0000 C   0  0  0  0  0  0  0  0  0  0  0  0
   -0.9760    0.6034    0.0000 C   0  0  0  0  0  0  0  0  0  0  0  0
   -2.0328    2.9769    0.0000 C   0  0  0  0  0  0  0  0  0  0  0  0
   -1.6953    4.4384    0.0000 O   0  0  0  0  0  0  0  0  0  0  0  0
   -0.8192    2.0952    0.0000 N   0  0  0  0  0  0  0  0  0  0  0  0
    0.5511    2.7053    0.0000 C   0  0  0  0  0  0  0  0  0  0  0  0
    1.7646    1.8236    0.0000 C   0  0  0  0  0  0  0  0  0  0  0  0
    3.1349    2.4337    0.0000 C   0  0  0  0  0  0  0  0  0  0  0  0
    4.3485    1.5521    0.0000 C   0  0  0  0  0  0  0  0  0  0  0  0
    5.7188    2.1622    0.0000 C   0  0  0  0  0  0  0  0  0  0  0  0
    5.8756    3.6539    0.0000 C   0  0  0  0  0  0  0  0  0  0  0  0
    4.6620    4.5356    0.0000 C   0  0  0  0  0  0  0  0  0  0  0  0
    3.2917    3.9255    0.0000 C   0  0  0  0  0  0  0  0  0  0  0  0
    0.7079    4.1971    0.0000 C   0  0  0  0  0  0  0  0  0  0  0  0
   -0.5056    5.0788    0.0000 O   0  0  0  0  0  0  0  0  0  0  0  0
    2.0782    4.8072    0.0000 O   0  0  0  0  0  0  0  0  0  0  0  0
  1  2  2  0
  2  3  1  0
  3  4  1  0
  4  5  1  0
  5  6  1  0
  6  7  1  0
  7  8  1  0
  8  9  1  0
  9 10  1  0
  9 11  1  0
 11 12  1  0
 12 13  1  0
 13 14  1  0
 14 15  2  0
 15 16  1  0
 16 17  2  0
 17 18  1  0
 18 19  2  0
 19 20  1  0
 20 21  2  0
 21 22  1  0
 22 23  2  0
 17 24  1  0
 24 25  2  0
  2 26  1  0
 26 27  1  0
 27 28  1  0
 28 29  1  0
 29 30  1  0
 30 31  1  0
 30 32  1  0
 32 33  1  0
 33 34  2  0
 33 35  1  0
 35 36  1  0
 36 37  1  0
 37 38  1  0
 38 39  2  0
 39 40  1  0
 40 41  2  0
 41 42  1  0
 42 43  2  0
 36 44  1  0
 44 45  2  0
 44 46  1  0
 46 47  1  0
 47 48  1  0
 48 49  1  0
 49 50  2  0
 50 51  1  0
 51 52  2  0
 52 53  1  0
 53 54  2  0
 47 55  1  0
 55 56  2  0
 55 57  1  0
 10  4  1  0
 25 14  1  0
 31 26  1  0
 43 38  1  0
 54 49  1  0
 11  6  1  0
 23 18  1  0
 32 28  1  0
M  END
>  <Title>  (99) 
idAADUgen7

$$$$

     RDKit          2D

 34 37  0  0  0  0  0  0  0  0999 V2000
   -1.2114    6.1554    0.0000 O   0  0  0  0  0  0  0  0  0  0  0  0
   -2.6380    5.6918    0.0000 C   0  0  0  0  0  0  0  0  0  0  0  0
   -2.9499    4.2246    0.0000 O   0  0  0  0  0  0  0  0  0  0  0  0
   -1.8351    3.2209    0.0000 C   0  0  0  0  0  0  0  0  0  0  0  0
   -0.4086    3.6844    0.0000 C   0  0  0  0  0  0  0  0  0  0  0  0
    0.7062    2.6807    0.0000 O   0  0  0  0  0  0  0  0  0  0  0  0
    0.3943    1.2135    0.0000 C   0  0  0  0  0  0  0  0  0  0  0  0
    1.8615    1.5254    0.0000 O   0  0  0  0  0  0  0  0  0  0  0  0
    1.2760    0.0000    0.0000 C   0  0  0  0  0  0  0  0  0  0  0  0
    0.3943   -1.2135    0.0000 C   0  0  0  0  0  0  0  0  0  0  0  0
   -1.0323   -0.7500    0.0000 N   0  0  0  0  0  0  0  0  0  0  0  0
   -1.0323    0.7500    0.0000 C   0  0  0  0  0  0  0  0  0  0  0  0
   -2.4026    0.1399    0.0000 C   0  0  0  0  0  0  0  0  0  0  0  0
   -3.6161    1.0216    0.0000 C   0  0  0  0  0  0  0  0  0  0  0  0
   -3.4593    2.5134    0.0000 O   0  0  0  0  0  0  0  0  0  0  0  0
   -4.9864    0.4115    0.0000 C   0  0  0  0  0  0  0  0  0  0  0  0
   -6.2000    1.2931    0.0000 C   0  0  0  0  0  0  0  0  0  0  0  0
   -7.5703    0.6830    0.0000 C   0  0  0  0  0  0  0  0  0  0  0  0
   -8.7838    1.5647    0.0000 C   0  0  0  0  0  0  0  0  0  0  0  0
  -10.1541    0.9546    0.0000 C   0  0  0  0  0  0  0  0  0  0  0  0
  -10.3109   -0.5372    0.0000 C   0  0  0  0  0  0  0  0  0  0  0  0
   -9.0974   -1.4188    0.0000 C   0  0  0  0  0  0  0  0  0  0  0  0
   -7.7271   -0.8087    0.0000 C   0  0  0  0  0  0  0  0  0  0  0  0
   -5.1432   -1.0803    0.0000 C   0  0  0  0  0  0  0  0  0  0  0  0
   -3.9297   -1.9620    0.0000 O   0  0  0  0  0  0  0  0  0  0  0  0
   -6.5136   -1.6904    0.0000 O   0  0  0  0  0  0  0  0  0  0  0  0
   -2.1470    1.7537    0.0000 C   0  0  0  0  0  0  0  0  0  0  0  0
   -3.7527    6.6955    0.0000 C   0  0  0  0  0  0  0  0  0  0  0  0
   -3.4408    8.1628    0.0000 C   0  0  0  0  0  0  0  0  0  0  0  0
   -4.5556    9.1664    0.0000 C   0  0  0  0  0  0  0  0  0  0  0  0
   -5.9821    8.7029    0.0000 C   0  0  0  0  0  0  0  0  0  0  0  0
   -7.0969    9.7066    0.0000 O   0  0  0  0  0  0  0  0  0  0  0  0
   -6.2940    7.2357    0.0000 C   0  0  0  0  0  0  0  0  0  0  0  0
   -5.1793    6.2320    0.0000 C   0  0  0  0  0  0  0  0  0  0  0  0
  1  2  2  0
  2  3  1  0
  3  4  1  0
  4  5  1  0
  5  6  1  0
  6  7  1  0
  7  8  1  0
  7  9  1  0
  9 10  1  0
 10 11  1  0
 11 12  1  0
 12 13  1  0
 13 14  1  0
 14 15  1  0
 14 16  1  0
 16 17  1  0
 17 18  1  0
 18 19  2  0
 19 20  1  0
 20 21  2  0
 21 22  1  0
 22 23  2  0
 16 24  1  0
 24 25  2  0
 24 26  1  0
 12 27  1  0
  2 28  1  0
 28 29  2  0
 29 30  1  0
 30 31  2  0
 31 32  1  0
 31 33  1  0
 33 34  2  0
 27  4  1  0
 34 28  1  0
 12  7  1  0
 23 18  1  0
M  END
>  <Title>  (100) 
idAADVgen7

$$$$

     RDKit          2D

 67 72  0  0  0  0  0  0  0  0999 V2000
   -0.6149   13.1058    0.0000 C   0  0  0  0  0  0  0  0  0  0  0  0
   -1.9140   12.3558    0.0000 C   0  0  0  0  0  0  0  0  0  0  0  0
   -3.2130   11.6058    0.0000 C   0  0  0  0  0  0  0  0  0  0  0  0
   -2.6640   13.6549    0.0000 C   0  0  0  0  0  0  0  0  0  0  0  0
   -1.1640   11.0568    0.0000 C   0  0  0  0  0  0  0  0  0  0  0  0
   -1.9140    9.7578    0.0000 C   0  0  0  0  0  0  0  0  0  0  0  0
   -3.4140    9.7578    0.0000 N   0  0  0  0  0  0  0  0  0  0  0  0
   -4.1640    8.4587    0.0000 C   0  0  0  0  0  0  0  0  0  0  0  0
   -3.4140    7.1597    0.0000 O   0  0  0  0  0  0  0  0  0  0  0  0
   -5.6640    8.4587    0.0000 C   0  0  0  0  0  0  0  0  0  0  0  0
   -6.4140    9.7578    0.0000 C   0  0  0  0  0  0  0  0  0  0  0  0
   -5.6640   11.0568    0.0000 C   0  0  0  0  0  0  0  0  0  0  0  0
   -4.1640   11.0568    0.0000 C   0  0  0  0  0  0  0  0  0  0  0  0
   -3.4140   12.3558    0.0000 C   0  0  0  0  0  0  0  0  0  0  0  0
   -4.1640   13.6549    0.0000 C   0  0  0  0  0  0  0  0  0  0  0  0
   -5.6640   13.6549    0.0000 C   0  0  0  0  0  0  0  0  0  0  0  0
   -6.4140   12.3558    0.0000 C   0  0  0  0  0  0  0  0  0  0  0  0
   -6.4140    7.1597    0.0000 N   0  0  0  0  0  0  0  0  0  0  0  0
   -5.6640    5.8606    0.0000 C   0  0  0  0  0  0  0  0  0  0  0  0
   -4.1640    5.8606    0.0000 O   0  0  0  0  0  0  0  0  0  0  0  0
   -6.4140    4.5616    0.0000 C   0  0  0  0  0  0  0  0  0  0  0  0
   -7.9140    4.5616    0.0000 C   0  0  0  0  0  0  0  0  0  0  0  0
   -8.6640    5.8606    0.0000 C   0  0  0  0  0  0  0  0  0  0  0  0
   -7.9140    7.1597    0.0000 C   0  0  0  0  0  0  0  0  0  0  0  0
   -8.6640    8.4587    0.0000 C   0  0  0  0  0  0  0  0  0  0  0  0
  -10.1640    8.4587    0.0000 C   0  0  0  0  0  0  0  0  0  0  0  0
  -10.9140    7.1597    0.0000 C   0  0  0  0  0  0  0  0  0  0  0  0
  -10.1640    5.8606    0.0000 C   0  0  0  0  0  0  0  0  0  0  0  0
   -5.6640    3.2626    0.0000 N   0  0  0  0  0  0  0  0  0  0  0  0
   -4.1640    3.2626    0.0000 C   0  0  0  0  0  0  0  0  0  0  0  0
   -3.4140    4.5616    0.0000 O   0  0  0  0  0  0  0  0  0  0  0  0
   -3.4140    1.9635    0.0000 O   0  0  0  0  0  0  0  0  0  0  0  0
   -1.9140    1.9635    0.0000 C   0  0  0  0  0  0  0  0  0  0  0  0
   -1.0323    3.1771    0.0000 C   0  0  0  0  0  0  0  0  0  0  0  0
    0.3943    2.7135    0.0000 O   0  0  0  0  0  0  0  0  0  0  0  0
    0.3943    1.2135    0.0000 C   0  0  0  0  0  0  0  0  0  0  0  0
    1.2760    0.0000    0.0000 O   0  0  0  0  0  0  0  0  0  0  0  0
    0.3943   -1.2135    0.0000 C   0  0  0  0  0  0  0  0  0  0  0  0
   -1.0323   -0.7500    0.0000 C   0  0  0  0  0  0  0  0  0  0  0  0
   -1.0323    0.7500    0.0000 C   0  0  0  0  0  0  0  0  0  0  0  0
   -1.1640    8.4587    0.0000 S   0  0  0  0  0  0  0  0  0  0  0  0
   -2.4630    7.7087    0.0000 O   0  0  0  0  0  0  0  0  0  0  0  0
    0.1351    9.2087    0.0000 O   0  0  0  0  0  0  0  0  0  0  0  0
   -0.4140    7.1597    0.0000 C   0  0  0  0  0  0  0  0  0  0  0  0
   -1.1640    5.8606    0.0000 C   0  0  0  0  0  0  0  0  0  0  0  0
   -0.4140    4.5616    0.0000 C   0  0  0  0  0  0  0  0  0  0  0  0
    1.0860    4.5616    0.0000 C   0  0  0  0  0  0  0  0  0  0  0  0
    1.8360    3.2626    0.0000 N   0  0  0  0  0  0  0  0  0  0  0  0
    3.3360    3.2626    0.0000 C   0  0  0  0  0  0  0  0  0  0  0  0
    4.0860    4.5616    0.0000 O   0  0  0  0  0  0  0  0  0  0  0  0
    4.0860    1.9635    0.0000 C   0  0  0  0  0  0  0  0  0  0  0  0
    3.3360    0.6645    0.0000 O   0  0  0  0  0  0  0  0  0  0  0  0
    5.5860    1.9635    0.0000 C   0  0  0  0  0  0  0  0  0  0  0  0
    6.3360    3.2626    0.0000 O   0  0  0  0  0  0  0  0  0  0  0  0
    6.3360    0.6645    0.0000 C   0  0  0  0  0  0  0  0  0  0  0  0
    7.8360    0.6645    0.0000 C   0  0  0  0  0  0  0  0  0  0  0  0
    8.5860   -0.6346    0.0000 C   0  0  0  0  0  0  0  0  0  0  0  0
    7.8360   -1.9336    0.0000 C   0  0  0  0  0  0  0  0  0  0  0  0
    8.5860   -3.2326    0.0000 C   0  0  0  0  0  0  0  0  0  0  0  0
   10.0860   -3.2326    0.0000 C   0  0  0  0  0  0  0  0  0  0  0  0
   10.8360   -1.9336    0.0000 C   0  0  0  0  0  0  0  0  0  0  0  0
   10.0860   -0.6346    0.0000 C   0  0  0  0  0  0  0  0  0  0  0  0
    5.5860   -0.6346    0.0000 C   0  0  0  0  0  0  0  0  0  0  0  0
    4.0860   -0.6346    0.0000 O   0  0  0  0  0  0  0  0  0  0  0  0
    6.3360   -1.9336    0.0000 O   0  0  0  0  0  0  0  0  0  0  0  0
    1.8360    5.8606    0.0000 C   0  0  0  0  0  0  0  0  0  0  0  0
    1.0860    7.1597    0.0000 C   0  0  0  0  0  0  0  0  0  0  0  0
  1  2  1  0
  2  3  1  0
  2  4  1  0
  2  5  1  0
  5  6  1  0
  6  7  1  0
  7  8  1  0
  8  9  2  0
  8 10  1  0
 10 11  1  0
 11 12  1  0
 12 13  2  0
 13 14  1  0
 14 15  2  0
 15 16  1  0
 16 17  2  0
 10 18  1  0
 18 19  1  0
 19 20  2  0
 19 21  1  0
 21 22  1  0
 22 23  1  0
 23 24  2  0
 24 25  1  0
 25 26  2  0
 26 27  1  0
 27 28  2  0
 21 29  1  0
 29 30  1  0
 30 31  2  0
 30 32  1  0
 32 33  1  0
 33 34  1  0
 34 35  1  0
 35 36  1  0
 36 37  1  0
 37 38  1  0
 38 39  1  0
 39 40  1  0
  6 41  1  0
 41 42  2  0
 41 43  2  0
 41 44  1  0
 44 45  2  0
 45 46  1  0
 46 47  2  0
 47 48  1  0
 48 49  1  0
 49 50  2  0
 49 51  1  0
 51 52  1  0
 51 53  1  0
 53 54  1  0
 53 55  1  0
 55 56  1  0
 56 57  1  0
 57 58  2  0
 58 59  1  0
 59 60  2  0
 60 61  1  0
 61 62  2  0
 55 63  1  0
 63 64  2  0
 63 65  1  0
 47 66  1  0
 66 67  2  0
 17 12  1  0
 28 23  1  0
 40 33  1  0
 67 44  1  0
 40 36  1  0
 62 57  1  0
M  END
>  <Title>  (101) 
idAADWgen7

$$$$

     RDKit          2D

 63 71  0  0  0  0  0  0  0  0999 V2000
   -1.9605    4.6312    0.0000 O   0  0  0  0  0  0  0  0  0  0  0  0
   -3.2463    3.8586    0.0000 C   0  0  0  0  0  0  0  0  0  0  0  0
   -3.4031    2.3668    0.0000 N   0  0  0  0  0  0  0  0  0  0  0  0
   -2.1895    1.4851    0.0000 C   0  0  0  0  0  0  0  0  0  0  0  0
   -0.8192    2.0952    0.0000 C   0  0  0  0  0  0  0  0  0  0  0  0
    0.3943    1.2135    0.0000 C   0  0  0  0  0  0  0  0  0  0  0  0
    1.2760    0.0000    0.0000 C   0  0  0  0  0  0  0  0  0  0  0  0
    0.3943   -1.2135    0.0000 C   0  0  0  0  0  0  0  0  0  0  0  0
   -1.0323   -0.7500    0.0000 C   0  0  0  0  0  0  0  0  0  0  0  0
   -2.3463   -0.0067    0.0000 C   0  0  0  0  0  0  0  0  0  0  0  0
   -1.0323    0.7500    0.0000 N   0  0  0  0  0  0  0  0  0  0  0  0
   -2.2458    1.6317    0.0000 C   0  0  0  0  0  0  0  0  0  0  0  0
   -2.0890    3.1235    0.0000 C   0  0  0  0  0  0  0  0  0  0  0  0
   -3.3025    4.0051    0.0000 C   0  0  0  0  0  0  0  0  0  0  0  0
   -3.1458    5.4969    0.0000 C   0  0  0  0  0  0  0  0  0  0  0  0
   -4.3593    6.3786    0.0000 C   0  0  0  0  0  0  0  0  0  0  0  0
   -5.7296    5.7685    0.0000 C   0  0  0  0  0  0  0  0  0  0  0  0
   -6.9431    6.6502    0.0000 C   0  0  0  0  0  0  0  0  0  0  0  0
   -6.7863    8.1420    0.0000 C   0  0  0  0  0  0  0  0  0  0  0  0
   -7.9999    9.0236    0.0000 C   0  0  0  0  0  0  0  0  0  0  0  0
   -9.3702    8.4135    0.0000 C   0  0  0  0  0  0  0  0  0  0  0  0
  -10.5837    9.2952    0.0000 C   0  0  0  0  0  0  0  0  0  0  0  0
  -10.4269   10.7870    0.0000 C   0  0  0  0  0  0  0  0  0  0  0  0
  -11.6404   11.6687    0.0000 C   0  0  0  0  0  0  0  0  0  0  0  0
  -13.0107   11.0586    0.0000 C   0  0  0  0  0  0  0  0  0  0  0  0
  -13.1675    9.5668    0.0000 C   0  0  0  0  0  0  0  0  0  0  0  0
  -11.9540    8.6851    0.0000 N   0  0  0  0  0  0  0  0  0  0  0  0
   -9.5270    6.9217    0.0000 C   0  0  0  0  0  0  0  0  0  0  0  0
   -8.3134    6.0401    0.0000 C   0  0  0  0  0  0  0  0  0  0  0  0
   -5.8864    4.2767    0.0000 C   0  0  0  0  0  0  0  0  0  0  0  0
   -4.6729    3.3950    0.0000 C   0  0  0  0  0  0  0  0  0  0  0  0
   -4.4598    4.7402    0.0000 C   0  0  0  0  0  0  0  0  0  0  0  0
   -4.3030    6.2320    0.0000 C   0  0  0  0  0  0  0  0  0  0  0  0
   -5.5165    7.1137    0.0000 C   0  0  0  0  0  0  0  0  0  0  0  0
   -6.8869    6.5036    0.0000 C   0  0  0  0  0  0  0  0  0  0  0  0
   -7.0436    5.0118    0.0000 C   0  0  0  0  0  0  0  0  0  0  0  0
   -5.8301    4.1301    0.0000 C   0  0  0  0  0  0  0  0  0  0  0  0
   -5.6733    5.6219    0.0000 C   0  0  0  0  0  0  0  0  0  0  0  0
   -4.4598    4.7402    0.0000 C   0  0  0  0  0  0  0  0  0  0  0  0
   -3.2778    5.6638    0.0000 O   0  0  0  0  0  0  0  0  0  0  0  0
   -4.6166    3.2485    0.0000 N   0  0  0  0  0  0  0  0  0  0  0  0
   -3.4031    2.3668    0.0000 C   0  0  0  0  0  0  0  0  0  0  0  0
   -3.5599    0.8750    0.0000 C   0  0  0  0  0  0  0  0  0  0  0  0
   -2.3463   -0.0067    0.0000 C   0  0  0  0  0  0  0  0  0  0  0  0
   -2.5031   -1.4985    0.0000 C   0  0  0  0  0  0  0  0  0  0  0  0
   -1.2896   -2.3801    0.0000 C   0  0  0  0  0  0  0  0  0  0  0  0
    0.0807   -1.7700    0.0000 C   0  0  0  0  0  0  0  0  0  0  0  0
    0.2375   -0.2783    0.0000 C   0  0  0  0  0  0  0  0  0  0  0  0
   -0.9760    0.6034    0.0000 C   0  0  0  0  0  0  0  0  0  0  0  0
   -2.0328    2.9769    0.0000 C   0  0  0  0  0  0  0  0  0  0  0  0
   -1.6953    4.4384    0.0000 O   0  0  0  0  0  0  0  0  0  0  0  0
   -0.8192    2.0952    0.0000 N   0  0  0  0  0  0  0  0  0  0  0  0
    0.5511    2.7053    0.0000 C   0  0  0  0  0  0  0  0  0  0  0  0
    1.7646    1.8236    0.0000 C   0  0  0  0  0  0  0  0  0  0  0  0
    3.1349    2.4337    0.0000 C   0  0  0  0  0  0  0  0  0  0  0  0
    4.3485    1.5521    0.0000 C   0  0  0  0  0  0  0  0  0  0  0  0
    5.7188    2.1622    0.0000 C   0  0  0  0  0  0  0  0  0  0  0  0
    5.8756    3.6539    0.0000 C   0  0  0  0  0  0  0  0  0  0  0  0
    4.6620    4.5356    0.0000 C   0  0  0  0  0  0  0  0  0  0  0  0
    3.2917    3.9255    0.0000 C   0  0  0  0  0  0  0  0  0  0  0  0
    0.7079    4.1971    0.0000 C   0  0  0  0  0  0  0  0  0  0  0  0
   -0.5056    5.0788    0.0000 O   0  0  0  0  0  0  0  0  0  0  0  0
    2.0782    4.8072    0.0000 O   0  0  0  0  0  0  0  0  0  0  0  0
  1  2  2  0
  2  3  1  0
  3  4  1  0
  4  5  1  0
  5  6  1  0
  6  7  1  0
  7  8  1  0
  8  9  1  0
  9 10  1  0
  9 11  1  0
 11 12  1  0
 12 13  1  0
 13 14  1  0
 14 15  2  0
 15 16  1  0
 16 17  2  0
 17 18  1  0
 18 19  2  0
 19 20  1  0
 20 21  2  0
 21 22  1  0
 22 23  2  0
 23 24  1  0
 24 25  2  0
 25 26  1  0
 26 27  2  0
 21 28  1  0
 28 29  2  0
 17 30  1  0
 30 31  2  0
  2 32  1  0
 32 33  1  0
 33 34  1  0
 34 35  1  0
 35 36  1  0
 36 37  1  0
 36 38  1  0
 38 39  1  0
 39 40  2  0
 39 41  1  0
 41 42  1  0
 42 43  1  0
 43 44  1  0
 44 45  2  0
 45 46  1  0
 46 47  2  0
 47 48  1  0
 48 49  2  0
 42 50  1  0
 50 51  2  0
 50 52  1  0
 52 53  1  0
 53 54  1  0
 54 55  1  0
 55 56  2  0
 56 57  1  0
 57 58  2  0
 58 59  1  0
 59 60  2  0
 53 61  1  0
 61 62  2  0
 61 63  1  0
 10  4  1  0
 31 14  1  0
 37 32  1  0
 49 44  1  0
 60 55  1  0
 11  6  1  0
 29 18  1  0
 38 34  1  0
 27 22  1  0
M  END
>  <Title>  (102) 
idAADXgen7

$$$$

     RDKit          2D

 69 75  0  0  0  0  0  0  0  0999 V2000
   -2.1962  -10.0840    0.0000 C   0  0  0  0  0  0  0  0  0  0  0  0
   -2.5081   -8.6168    0.0000 C   0  0  0  0  0  0  0  0  0  0  0  0
   -2.8199   -7.1496    0.0000 C   0  0  0  0  0  0  0  0  0  0  0  0
   -3.9753   -8.9287    0.0000 C   0  0  0  0  0  0  0  0  0  0  0  0
   -1.0409   -8.3049    0.0000 N   0  0  0  0  0  0  0  0  0  0  0  0
   -0.5773   -6.8783    0.0000 C   0  0  0  0  0  0  0  0  0  0  0  0
   -1.5810   -5.7636    0.0000 O   0  0  0  0  0  0  0  0  0  0  0  0
    0.8899   -6.5665    0.0000 C   0  0  0  0  0  0  0  0  0  0  0  0
    2.0046   -7.5702    0.0000 C   0  0  0  0  0  0  0  0  0  0  0  0
    3.3037   -6.8202    0.0000 C   0  0  0  0  0  0  0  0  0  0  0  0
    2.9918   -5.3529    0.0000 C   0  0  0  0  0  0  0  0  0  0  0  0
    1.5000   -5.1962    0.0000 N   0  0  0  0  0  0  0  0  0  0  0  0
    0.7500   -3.8971    0.0000 C   0  0  0  0  0  0  0  0  0  0  0  0
   -0.7500   -3.8971    0.0000 O   0  0  0  0  0  0  0  0  0  0  0  0
    1.5000   -2.5981    0.0000 N   0  0  0  0  0  0  0  0  0  0  0  0
    0.7500   -1.2990    0.0000 C   0  0  0  0  0  0  0  0  0  0  0  0
    1.5000    0.0000    0.0000 C   0  0  0  0  0  0  0  0  0  0  0  0
    0.7500    1.2990    0.0000 C   0  0  0  0  0  0  0  0  0  0  0  0
   -0.7500    1.2990    0.0000 C   0  0  0  0  0  0  0  0  0  0  0  0
   -1.5000    0.0000    0.0000 C   0  0  0  0  0  0  0  0  0  0  0  0
   -0.7500   -1.2990    0.0000 C   0  0  0  0  0  0  0  0  0  0  0  0
   -0.0000   -0.0000    0.0000 C   0  0  0  0  0  0  0  0  0  0  0  0
    0.7500   -1.2990    0.0000 C   0  0  0  0  0  0  0  0  0  0  0  0
    2.2500   -1.2990    0.0000 O   0  0  0  0  0  0  0  0  0  0  0  0
   -0.0000   -2.5981    0.0000 N   0  0  0  0  0  0  0  0  0  0  0  0
    0.7500   -3.8971    0.0000 C   0  0  0  0  0  0  0  0  0  0  0  0
   -0.0000   -5.1962    0.0000 C   0  0  0  0  0  0  0  0  0  0  0  0
    0.7500   -6.4952    0.0000 C   0  0  0  0  0  0  0  0  0  0  0  0
   -0.0000   -7.7942    0.0000 C   0  0  0  0  0  0  0  0  0  0  0  0
    0.7500   -9.0933    0.0000 C   0  0  0  0  0  0  0  0  0  0  0  0
    2.2500   -9.0933    0.0000 C   0  0  0  0  0  0  0  0  0  0  0  0
    3.0000   -7.7942    0.0000 C   0  0  0  0  0  0  0  0  0  0  0  0
    2.2500   -6.4952    0.0000 C   0  0  0  0  0  0  0  0  0  0  0  0
    2.2500   -3.8971    0.0000 C   0  0  0  0  0  0  0  0  0  0  0  0
    3.2920   -4.9761    0.0000 O   0  0  0  0  0  0  0  0  0  0  0  0
    3.0000   -2.5981    0.0000 N   0  0  0  0  0  0  0  0  0  0  0  0
    4.5000   -2.5981    0.0000 C   0  0  0  0  0  0  0  0  0  0  0  0
    5.2500   -1.2990    0.0000 C   0  0  0  0  0  0  0  0  0  0  0  0
    6.7500   -1.2990    0.0000 C   0  0  0  0  0  0  0  0  0  0  0  0
    7.5000   -2.5981    0.0000 C   0  0  0  0  0  0  0  0  0  0  0  0
    9.0000   -2.5981    0.0000 C   0  0  0  0  0  0  0  0  0  0  0  0
    9.7500   -1.2990    0.0000 C   0  0  0  0  0  0  0  0  0  0  0  0
    9.0000   -0.0000    0.0000 C   0  0  0  0  0  0  0  0  0  0  0  0
    7.5000   -0.0000    0.0000 C   0  0  0  0  0  0  0  0  0  0  0  0
    5.2500   -3.8971    0.0000 C   0  0  0  0  0  0  0  0  0  0  0  0
    4.5000   -5.1962    0.0000 O   0  0  0  0  0  0  0  0  0  0  0  0
    6.7500   -3.8971    0.0000 N   0  0  0  0  0  0  0  0  0  0  0  0
    7.5000   -5.1962    0.0000 C   0  0  0  0  0  0  0  0  0  0  0  0
    9.0000   -5.1962    0.0000 C   0  0  0  0  0  0  0  0  0  0  0  0
    9.7500   -6.4952    0.0000 C   0  0  0  0  0  0  0  0  0  0  0  0
    9.0000   -7.7942    0.0000 C   0  0  0  0  0  0  0  0  0  0  0  0
    9.7500   -9.0933    0.0000 C   0  0  0  0  0  0  0  0  0  0  0  0
   11.2500   -9.0933    0.0000 C   0  0  0  0  0  0  0  0  0  0  0  0
   12.0000   -7.7942    0.0000 C   0  0  0  0  0  0  0  0  0  0  0  0
   11.2500   -6.4952    0.0000 C   0  0  0  0  0  0  0  0  0  0  0  0
    6.7500   -6.4952    0.0000 C   0  0  0  0  0  0  0  0  0  0  0  0
    5.2500   -6.4952    0.0000 O   0  0  0  0  0  0  0  0  0  0  0  0
    7.5000   -7.7942    0.0000 N   0  0  0  0  0  0  0  0  0  0  0  0
    6.7500   -9.0933    0.0000 C   0  0  0  0  0  0  0  0  0  0  0  0
    7.5000  -10.3923    0.0000 C   0  0  0  0  0  0  0  0  0  0  0  0
    6.7500  -11.6913    0.0000 C   0  0  0  0  0  0  0  0  0  0  0  0
    5.2500  -11.6913    0.0000 C   0  0  0  0  0  0  0  0  0  0  0  0
    4.5000  -12.9904    0.0000 C   0  0  0  0  0  0  0  0  0  0  0  0
    5.2500  -14.2894    0.0000 C   0  0  0  0  0  0  0  0  0  0  0  0
    6.7500  -14.2894    0.0000 C   0  0  0  0  0  0  0  0  0  0  0  0
    7.5000  -12.9904    0.0000 C   0  0  0  0  0  0  0  0  0  0  0  0
    5.2500   -9.0933    0.0000 C   0  0  0  0  0  0  0  0  0  0  0  0
    4.5000   -7.7942    0.0000 O   0  0  0  0  0  0  0  0  0  0  0  0
    4.5000  -10.3923    0.0000 O   0  0  0  0  0  0  0  0  0  0  0  0
  1  2  1  0
  2  3  1  0
  2  4  1  0
  2  5  1  0
  5  6  1  0
  6  7  2  0
  6  8  1  0
  8  9  1  0
  9 10  1  0
 10 11  1  0
 11 12  1  0
 12 13  1  0
 13 14  2  0
 13 15  1  0
 15 16  1  0
 16 17  1  0
 17 18  1  0
 18 19  1  0
 19 20  1  0
 20 21  1  0
 20 22  1  0
 22 23  1  0
 23 24  2  0
 23 25  1  0
 25 26  1  0
 26 27  1  0
 27 28  1  0
 28 29  2  0
 29 30  1  0
 30 31  2  0
 31 32  1  0
 32 33  2  0
 26 34  1  0
 34 35  2  0
 34 36  1  0
 36 37  1  0
 37 38  1  0
 38 39  1  0
 39 40  2  0
 40 41  1  0
 41 42  2  0
 42 43  1  0
 43 44  2  0
 37 45  1  0
 45 46  2  0
 45 47  1  0
 47 48  1  0
 48 49  1  0
 49 50  1  0
 50 51  2  0
 51 52  1  0
 52 53  2  0
 53 54  1  0
 54 55  2  0
 48 56  1  0
 56 57  2  0
 56 58  1  0
 58 59  1  0
 59 60  1  0
 60 61  1  0
 61 62  2  0
 62 63  1  0
 63 64  2  0
 64 65  1  0
 65 66  2  0
 59 67  1  0
 67 68  2  0
 67 69  1  0
 12  8  1  0
 21 16  1  0
 33 28  1  0
 44 39  1  0
 55 50  1  0
 66 61  1  0
 22 18  1  0
M  END
>  <Title>  (103) 
idAADYgen7

$$$$

     RDKit          2D

 74 82  0  0  0  0  0  0  0  0999 V2000
   -0.7500   -3.8971    0.0000 O   0  0  0  0  0  0  0  0  0  0  0  0
    0.7500   -3.8971    0.0000 C   0  0  0  0  0  0  0  0  0  0  0  0
    1.5000   -5.1962    0.0000 N   0  0  0  0  0  0  0  0  0  0  0  0
    0.7500   -6.4952    0.0000 C   0  0  0  0  0  0  0  0  0  0  0  0
    1.5000   -7.7942    0.0000 C   0  0  0  0  0  0  0  0  0  0  0  0
    2.9095   -7.2812    0.0000 C   0  0  0  0  0  0  0  0  0  0  0  0
    4.0586   -8.2454    0.0000 C   0  0  0  0  0  0  0  0  0  0  0  0
    5.4681   -7.7323    0.0000 C   0  0  0  0  0  0  0  0  0  0  0  0
    5.7286   -6.2551    0.0000 C   0  0  0  0  0  0  0  0  0  0  0  0
    4.5796   -5.2910    0.0000 C   0  0  0  0  0  0  0  0  0  0  0  0
    3.1700   -5.8040    0.0000 C   0  0  0  0  0  0  0  0  0  0  0  0
    1.7605   -9.2714    0.0000 C   0  0  0  0  0  0  0  0  0  0  0  0
    0.3509   -8.7584    0.0000 C   0  0  0  0  0  0  0  0  0  0  0  0
    1.5000   -2.5981    0.0000 N   0  0  0  0  0  0  0  0  0  0  0  0
    0.7500   -1.2990    0.0000 C   0  0  0  0  0  0  0  0  0  0  0  0
    1.5000    0.0000    0.0000 C   0  0  0  0  0  0  0  0  0  0  0  0
    0.7500    1.2990    0.0000 C   0  0  0  0  0  0  0  0  0  0  0  0
   -0.7500    1.2990    0.0000 C   0  0  0  0  0  0  0  0  0  0  0  0
   -1.5000    0.0000    0.0000 C   0  0  0  0  0  0  0  0  0  0  0  0
   -0.7500   -1.2990    0.0000 C   0  0  0  0  0  0  0  0  0  0  0  0
   -0.0000   -0.0000    0.0000 C   0  0  0  0  0  0  0  0  0  0  0  0
    0.7500   -1.2990    0.0000 C   0  0  0  0  0  0  0  0  0  0  0  0
    2.2500   -1.2990    0.0000 O   0  0  0  0  0  0  0  0  0  0  0  0
   -0.0000   -2.5981    0.0000 N   0  0  0  0  0  0  0  0  0  0  0  0
    0.7500   -3.8971    0.0000 C   0  0  0  0  0  0  0  0  0  0  0  0
   -0.0000   -5.1962    0.0000 C   0  0  0  0  0  0  0  0  0  0  0  0
    0.7500   -6.4952    0.0000 C   0  0  0  0  0  0  0  0  0  0  0  0
   -0.0000   -7.7942    0.0000 C   0  0  0  0  0  0  0  0  0  0  0  0
    0.7500   -9.0933    0.0000 C   0  0  0  0  0  0  0  0  0  0  0  0
    2.2500   -9.0933    0.0000 C   0  0  0  0  0  0  0  0  0  0  0  0
    3.0000  -10.3923    0.0000 C   0  0  0  0  0  0  0  0  0  0  0  0
    2.2500  -11.6913    0.0000 C   0  0  0  0  0  0  0  0  0  0  0  0
    3.0000  -12.9904    0.0000 C   0  0  0  0  0  0  0  0  0  0  0  0
    4.5000  -12.9904    0.0000 C   0  0  0  0  0  0  0  0  0  0  0  0
    5.2500  -11.6913    0.0000 C   0  0  0  0  0  0  0  0  0  0  0  0
    4.5000  -10.3923    0.0000 N   0  0  0  0  0  0  0  0  0  0  0  0
    3.0000   -7.7942    0.0000 C   0  0  0  0  0  0  0  0  0  0  0  0
    2.2500   -6.4952    0.0000 C   0  0  0  0  0  0  0  0  0  0  0  0
    2.2500   -3.8971    0.0000 C   0  0  0  0  0  0  0  0  0  0  0  0
    3.0000   -2.5981    0.0000 O   0  0  0  0  0  0  0  0  0  0  0  0
    3.0000   -5.1962    0.0000 N   0  0  0  0  0  0  0  0  0  0  0  0
    4.5000   -5.1962    0.0000 C   0  0  0  0  0  0  0  0  0  0  0  0
    5.2500   -6.4952    0.0000 C   0  0  0  0  0  0  0  0  0  0  0  0
    6.7500   -6.4952    0.0000 C   0  0  0  0  0  0  0  0  0  0  0  0
    7.5000   -7.7942    0.0000 C   0  0  0  0  0  0  0  0  0  0  0  0
    9.0000   -7.7942    0.0000 C   0  0  0  0  0  0  0  0  0  0  0  0
    9.7500   -6.4952    0.0000 C   0  0  0  0  0  0  0  0  0  0  0  0
    9.0000   -5.1962    0.0000 C   0  0  0  0  0  0  0  0  0  0  0  0
    7.5000   -5.1962    0.0000 C   0  0  0  0  0  0  0  0  0  0  0  0
    5.2500   -3.8971    0.0000 C   0  0  0  0  0  0  0  0  0  0  0  0
    4.5000   -2.5981    0.0000 O   0  0  0  0  0  0  0  0  0  0  0  0
    6.7500   -3.8971    0.0000 N   0  0  0  0  0  0  0  0  0  0  0  0
    7.5000   -2.5981    0.0000 C   0  0  0  0  0  0  0  0  0  0  0  0
    9.0000   -2.5981    0.0000 C   0  0  0  0  0  0  0  0  0  0  0  0
    9.7500   -1.2990    0.0000 C   0  0  0  0  0  0  0  0  0  0  0  0
   11.2500   -1.2990    0.0000 C   0  0  0  0  0  0  0  0  0  0  0  0
   12.0000   -0.0000    0.0000 C   0  0  0  0  0  0  0  0  0  0  0  0
   11.2500    1.2990    0.0000 C   0  0  0  0  0  0  0  0  0  0  0  0
    9.7500    1.2990    0.0000 C   0  0  0  0  0  0  0  0  0  0  0  0
    9.0000   -0.0000    0.0000 C   0  0  0  0  0  0  0  0  0  0  0  0
    6.7500   -1.2990    0.0000 C   0  0  0  0  0  0  0  0  0  0  0  0
    5.2500   -1.2990    0.0000 O   0  0  0  0  0  0  0  0  0  0  0  0
    7.5000   -0.0000    0.0000 N   0  0  0  0  0  0  0  0  0  0  0  0
    6.7500    1.2990    0.0000 C   0  0  0  0  0  0  0  0  0  0  0  0
    7.5000    2.5981    0.0000 C   0  0  0  0  0  0  0  0  0  0  0  0
    6.7500    3.8971    0.0000 C   0  0  0  0  0  0  0  0  0  0  0  0
    7.5000    5.1962    0.0000 C   0  0  0  0  0  0  0  0  0  0  0  0
    6.7500    6.4952    0.0000 C   0  0  0  0  0  0  0  0  0  0  0  0
    5.2500    6.4952    0.0000 C   0  0  0  0  0  0  0  0  0  0  0  0
    4.5000    5.1962    0.0000 C   0  0  0  0  0  0  0  0  0  0  0  0
    5.2500    3.8971    0.0000 C   0  0  0  0  0  0  0  0  0  0  0  0
    5.2500    1.2990    0.0000 C   0  0  0  0  0  0  0  0  0  0  0  0
    4.5000   -0.0000    0.0000 O   0  0  0  0  0  0  0  0  0  0  0  0
    4.5000    2.5981    0.0000 O   0  0  0  0  0  0  0  0  0  0  0  0
  1  2  2  0
  2  3  1  0
  3  4  1  0
  4  5  1  0
  5  6  1  0
  6  7  2  0
  7  8  1  0
  8  9  2  0
  9 10  1  0
 10 11  2  0
  5 12  1  0
 12 13  1  0
  2 14  1  0
 14 15  1  0
 15 16  1  0
 16 17  1  0
 17 18  1  0
 18 19  1  0
 19 20  1  0
 19 21  1  0
 21 22  1  0
 22 23  2  0
 22 24  1  0
 24 25  1  0
 25 26  1  0
 26 27  1  0
 27 28  2  0
 28 29  1  0
 29 30  2  0
 30 31  1  0
 31 32  2  0
 32 33  1  0
 33 34  2  0
 34 35  1  0
 35 36  2  0
 30 37  1  0
 37 38  2  0
 25 39  1  0
 39 40  2  0
 39 41  1  0
 41 42  1  0
 42 43  1  0
 43 44  1  0
 44 45  2  0
 45 46  1  0
 46 47  2  0
 47 48  1  0
 48 49  2  0
 42 50  1  0
 50 51  2  0
 50 52  1  0
 52 53  1  0
 53 54  1  0
 54 55  1  0
 55 56  2  0
 56 57  1  0
 57 58  2  0
 58 59  1  0
 59 60  2  0
 53 61  1  0
 61 62  2  0
 61 63  1  0
 63 64  1  0
 64 65  1  0
 65 66  1  0
 66 67  2  0
 67 68  1  0
 68 69  2  0
 69 70  1  0
 70 71  2  0
 64 72  1  0
 72 73  2  0
 72 74  1  0
 13  5  1  0
 20 15  1  0
 38 27  1  0
 49 44  1  0
 60 55  1  0
 71 66  1  0
 11  6  1  0
 21 17  1  0
 36 31  1  0
M  END
>  <Title>  (104) 
idAADZgen7

$$$$

     RDKit          2D

 72 77  0  0  0  0  0  0  0  0999 V2000
   12.7500   -1.2990    0.0000 C   0  0  0  0  0  0  0  0  0  0  0  0
   13.5000   -0.0000    0.0000 C   0  0  0  0  0  0  0  0  0  0  0  0
   15.0000   -0.0000    0.0000 C   0  0  0  0  0  0  0  0  0  0  0  0
   12.7500    1.2990    0.0000 C   0  0  0  0  0  0  0  0  0  0  0  0
   13.5000    2.5981    0.0000 N   0  0  0  0  0  0  0  0  0  0  0  0
   12.7500    3.8971    0.0000 S   0  0  0  0  0  0  0  0  0  0  0  0
   14.0490    4.6471    0.0000 O   0  0  0  0  0  0  0  0  0  0  0  0
   11.4510    3.1471    0.0000 O   0  0  0  0  0  0  0  0  0  0  0  0
   12.0000    5.1962    0.0000 C   0  0  0  0  0  0  0  0  0  0  0  0
   10.5000    5.1962    0.0000 C   0  0  0  0  0  0  0  0  0  0  0  0
    9.7500    6.4952    0.0000 C   0  0  0  0  0  0  0  0  0  0  0  0
   10.5000    7.7942    0.0000 C   0  0  0  0  0  0  0  0  0  0  0  0
   12.0000    7.7942    0.0000 C   0  0  0  0  0  0  0  0  0  0  0  0
   12.7500    6.4952    0.0000 C   0  0  0  0  0  0  0  0  0  0  0  0
   11.2500    1.2990    0.0000 C   0  0  0  0  0  0  0  0  0  0  0  0
   10.5000    2.5981    0.0000 O   0  0  0  0  0  0  0  0  0  0  0  0
   10.5000   -0.0000    0.0000 N   0  0  0  0  0  0  0  0  0  0  0  0
    9.0000   -0.0000    0.0000 C   0  0  0  0  0  0  0  0  0  0  0  0
    8.2500   -1.2990    0.0000 C   0  0  0  0  0  0  0  0  0  0  0  0
    6.7500   -1.2990    0.0000 C   0  0  0  0  0  0  0  0  0  0  0  0
    6.0000   -2.5981    0.0000 C   0  0  0  0  0  0  0  0  0  0  0  0
    4.5000   -2.5981    0.0000 C   0  0  0  0  0  0  0  0  0  0  0  0
    3.7500   -1.2990    0.0000 C   0  0  0  0  0  0  0  0  0  0  0  0
    4.5000   -0.0000    0.0000 C   0  0  0  0  0  0  0  0  0  0  0  0
    6.0000   -0.0000    0.0000 C   0  0  0  0  0  0  0  0  0  0  0  0
    8.2500    1.2990    0.0000 C   0  0  0  0  0  0  0  0  0  0  0  0
    9.0000    2.5981    0.0000 O   0  0  0  0  0  0  0  0  0  0  0  0
    6.7500    1.2990    0.0000 N   0  0  0  0  0  0  0  0  0  0  0  0
    6.0000    2.5981    0.0000 C   0  0  0  0  0  0  0  0  0  0  0  0
    6.7500    3.8971    0.0000 C   0  0  0  0  0  0  0  0  0  0  0  0
    6.0000    5.1962    0.0000 C   0  0  0  0  0  0  0  0  0  0  0  0
    6.7500    6.4952    0.0000 C   0  0  0  0  0  0  0  0  0  0  0  0
    6.0000    7.7942    0.0000 C   0  0  0  0  0  0  0  0  0  0  0  0
    4.5000    7.7942    0.0000 C   0  0  0  0  0  0  0  0  0  0  0  0
    3.7500    6.4952    0.0000 C   0  0  0  0  0  0  0  0  0  0  0  0
    4.5000    5.1962    0.0000 C   0  0  0  0  0  0  0  0  0  0  0  0
    4.5000    2.5981    0.0000 C   0  0  0  0  0  0  0  0  0  0  0  0
    3.7500    1.2990    0.0000 O   0  0  0  0  0  0  0  0  0  0  0  0
    3.7500    3.8971    0.0000 N   0  0  0  0  0  0  0  0  0  0  0  0
    2.2500    3.8971    0.0000 C   0  0  0  0  0  0  0  0  0  0  0  0
    1.5000    2.5981    0.0000 C   0  0  0  0  0  0  0  0  0  0  0  0
    0.0000    2.5981    0.0000 C   0  0  0  0  0  0  0  0  0  0  0  0
   -0.7500    1.2990    0.0000 C   0  0  0  0  0  0  0  0  0  0  0  0
   -2.2500    1.2990    0.0000 C   0  0  0  0  0  0  0  0  0  0  0  0
   -3.0000    2.5981    0.0000 C   0  0  0  0  0  0  0  0  0  0  0  0
   -2.2500    3.8971    0.0000 C   0  0  0  0  0  0  0  0  0  0  0  0
   -0.7500    3.8971    0.0000 C   0  0  0  0  0  0  0  0  0  0  0  0
    1.5000    5.1962    0.0000 C   0  0  0  0  0  0  0  0  0  0  0  0
    0.0000    5.1962    0.0000 O   0  0  0  0  0  0  0  0  0  0  0  0
    2.2500    6.4952    0.0000 N   0  0  0  0  0  0  0  0  0  0  0  0
    1.5000    7.7942    0.0000 C   0  0  0  0  0  0  0  0  0  0  0  0
    2.2500    9.0933    0.0000 C   0  0  0  0  0  0  0  0  0  0  0  0
    1.5000   10.3923    0.0000 C   0  0  0  0  0  0  0  0  0  0  0  0
    2.2500   11.6913    0.0000 C   0  0  0  0  0  0  0  0  0  0  0  0
    1.5000   12.9904    0.0000 C   0  0  0  0  0  0  0  0  0  0  0  0
    0.0000   12.9904    0.0000 C   0  0  0  0  0  0  0  0  0  0  0  0
   -0.7500   11.6913    0.0000 C   0  0  0  0  0  0  0  0  0  0  0  0
    0.0000   10.3923    0.0000 C   0  0  0  0  0  0  0  0  0  0  0  0
    0.0000    7.7942    0.0000 C   0  0  0  0  0  0  0  0  0  0  0  0
   -0.7500    6.4952    0.0000 O   0  0  0  0  0  0  0  0  0  0  0  0
   -0.7500    9.0933    0.0000 N   0  0  0  0  0  0  0  0  0  0  0  0
   -2.2500    9.0933    0.0000 C   0  0  0  0  0  0  0  0  0  0  0  0
   -3.0000   10.3923    0.0000 C   0  0  0  0  0  0  0  0  0  0  0  0
   -4.5000   10.3923    0.0000 C   0  0  0  0  0  0  0  0  0  0  0  0
   -5.2500   11.6913    0.0000 C   0  0  0  0  0  0  0  0  0  0  0  0
   -6.7500   11.6913    0.0000 C   0  0  0  0  0  0  0  0  0  0  0  0
   -7.5000   10.3923    0.0000 C   0  0  0  0  0  0  0  0  0  0  0  0
   -6.7500    9.0933    0.0000 C   0  0  0  0  0  0  0  0  0  0  0  0
   -5.2500    9.0933    0.0000 C   0  0  0  0  0  0  0  0  0  0  0  0
   -3.0000    7.7942    0.0000 C   0  0  0  0  0  0  0  0  0  0  0  0
   -2.2500    6.4952    0.0000 O   0  0  0  0  0  0  0  0  0  0  0  0
   -4.5000    7.7942    0.0000 O   0  0  0  0  0  0  0  0  0  0  0  0
  1  2  1  0
  2  3  1  0
  2  4  1  0
  4  5  1  0
  5  6  1  0
  6  7  2  0
  6  8  2  0
  6  9  1  0
  9 10  2  0
 10 11  1  0
 11 12  2  0
 12 13  1  0
 13 14  2  0
  4 15  1  0
 15 16  2  0
 15 17  1  0
 17 18  1  0
 18 19  1  0
 19 20  1  0
 20 21  2  0
 21 22  1  0
 22 23  2  0
 23 24  1  0
 24 25  2  0
 18 26  1  0
 26 27  2  0
 26 28  1  0
 28 29  1  0
 29 30  1  0
 30 31  1  0
 31 32  2  0
 32 33  1  0
 33 34  2  0
 34 35  1  0
 35 36  2  0
 29 37  1  0
 37 38  2  0
 37 39  1  0
 39 40  1  0
 40 41  1  0
 41 42  1  0
 42 43  2  0
 43 44  1  0
 44 45  2  0
 45 46  1  0
 46 47  2  0
 40 48  1  0
 48 49  2  0
 48 50  1  0
 50 51  1  0
 51 52  1  0
 52 53  1  0
 53 54  2  0
 54 55  1  0
 55 56  2  0
 56 57  1  0
 57 58  2  0
 51 59  1  0
 59 60  2  0
 59 61  1  0
 61 62  1  0
 62 63  1  0
 63 64  1  0
 64 65  2  0
 65 66  1  0
 66 67  2  0
 67 68  1  0
 68 69  2  0
 62 70  1  0
 70 71  2  0
 70 72  1  0
 14  9  1  0
 25 20  1  0
 36 31  1  0
 47 42  1  0
 58 53  1  0
 69 64  1  0
M  END
>  <Title>  (105) 
idAAEAgen7

$$$$

     RDKit          2D

 67 73  0  0  0  0  0  0  0  0999 V2000
   -1.9140    4.5616    0.0000 N   0  0  0  0  0  0  0  0  0  0  0  0
   -1.1640    3.2626    0.0000 C   0  0  0  0  0  0  0  0  0  0  0  0
   -1.9140    1.9635    0.0000 O   0  0  0  0  0  0  0  0  0  0  0  0
    0.3360    3.2626    0.0000 C   0  0  0  0  0  0  0  0  0  0  0  0
    1.0860    1.9635    0.0000 C   0  0  0  0  0  0  0  0  0  0  0  0
    0.3360    0.6645    0.0000 C   0  0  0  0  0  0  0  0  0  0  0  0
   -1.1640    0.6645    0.0000 C   0  0  0  0  0  0  0  0  0  0  0  0
   -1.9140   -0.6346    0.0000 C   0  0  0  0  0  0  0  0  0  0  0  0
   -1.1640   -1.9336    0.0000 C   0  0  0  0  0  0  0  0  0  0  0  0
    0.3360   -1.9336    0.0000 C   0  0  0  0  0  0  0  0  0  0  0  0
    1.0860   -0.6346    0.0000 C   0  0  0  0  0  0  0  0  0  0  0  0
    1.0860    4.5616    0.0000 N   0  0  0  0  0  0  0  0  0  0  0  0
    0.3360    5.8606    0.0000 C   0  0  0  0  0  0  0  0  0  0  0  0
   -1.1640    5.8606    0.0000 O   0  0  0  0  0  0  0  0  0  0  0  0
    1.0860    7.1597    0.0000 C   0  0  0  0  0  0  0  0  0  0  0  0
    2.5860    7.1597    0.0000 C   0  0  0  0  0  0  0  0  0  0  0  0
    3.3360    5.8606    0.0000 C   0  0  0  0  0  0  0  0  0  0  0  0
    2.5860    4.5616    0.0000 C   0  0  0  0  0  0  0  0  0  0  0  0
    3.3360    3.2626    0.0000 C   0  0  0  0  0  0  0  0  0  0  0  0
    4.8360    3.2626    0.0000 C   0  0  0  0  0  0  0  0  0  0  0  0
    5.5860    4.5616    0.0000 C   0  0  0  0  0  0  0  0  0  0  0  0
    4.8360    5.8606    0.0000 C   0  0  0  0  0  0  0  0  0  0  0  0
    0.3360    8.4587    0.0000 N   0  0  0  0  0  0  0  0  0  0  0  0
   -1.1640    8.4587    0.0000 C   0  0  0  0  0  0  0  0  0  0  0  0
   -1.9140    7.1597    0.0000 O   0  0  0  0  0  0  0  0  0  0  0  0
   -1.9140    9.7578    0.0000 C   0  0  0  0  0  0  0  0  0  0  0  0
   -1.1640   11.0568    0.0000 C   0  0  0  0  0  0  0  0  0  0  0  0
    0.3360   11.0568    0.0000 C   0  0  0  0  0  0  0  0  0  0  0  0
    1.0860    9.7578    0.0000 C   0  0  0  0  0  0  0  0  0  0  0  0
    2.5860    9.7578    0.0000 C   0  0  0  0  0  0  0  0  0  0  0  0
    3.3360   11.0568    0.0000 C   0  0  0  0  0  0  0  0  0  0  0  0
    2.5860   12.3558    0.0000 C   0  0  0  0  0  0  0  0  0  0  0  0
    1.0860   12.3558    0.0000 C   0  0  0  0  0  0  0  0  0  0  0  0
   -3.4140    9.7578    0.0000 N   0  0  0  0  0  0  0  0  0  0  0  0
   -4.1640    8.4587    0.0000 C   0  0  0  0  0  0  0  0  0  0  0  0
   -3.4140    7.1597    0.0000 O   0  0  0  0  0  0  0  0  0  0  0  0
   -5.6640    8.4587    0.0000 C   0  0  0  0  0  0  0  0  0  0  0  0
   -6.4140    9.7578    0.0000 C   0  0  0  0  0  0  0  0  0  0  0  0
   -5.6640   11.0568    0.0000 C   0  0  0  0  0  0  0  0  0  0  0  0
   -4.1640   11.0568    0.0000 C   0  0  0  0  0  0  0  0  0  0  0  0
   -3.4140   12.3558    0.0000 C   0  0  0  0  0  0  0  0  0  0  0  0
   -4.1640   13.6549    0.0000 C   0  0  0  0  0  0  0  0  0  0  0  0
   -5.6640   13.6549    0.0000 C   0  0  0  0  0  0  0  0  0  0  0  0
   -6.4140   12.3558    0.0000 C   0  0  0  0  0  0  0  0  0  0  0  0
   -6.4140    7.1597    0.0000 N   0  0  0  0  0  0  0  0  0  0  0  0
   -5.6640    5.8606    0.0000 C   0  0  0  0  0  0  0  0  0  0  0  0
   -4.1640    5.8606    0.0000 O   0  0  0  0  0  0  0  0  0  0  0  0
   -6.4140    4.5616    0.0000 C   0  0  0  0  0  0  0  0  0  0  0  0
   -7.9140    4.5616    0.0000 C   0  0  0  0  0  0  0  0  0  0  0  0
   -8.6640    5.8606    0.0000 C   0  0  0  0  0  0  0  0  0  0  0  0
   -7.9140    7.1597    0.0000 C   0  0  0  0  0  0  0  0  0  0  0  0
   -8.6640    8.4587    0.0000 C   0  0  0  0  0  0  0  0  0  0  0  0
  -10.1640    8.4587    0.0000 C   0  0  0  0  0  0  0  0  0  0  0  0
  -10.9140    7.1597    0.0000 C   0  0  0  0  0  0  0  0  0  0  0  0
  -10.1640    5.8606    0.0000 C   0  0  0  0  0  0  0  0  0  0  0  0
   -5.6640    3.2626    0.0000 N   0  0  0  0  0  0  0  0  0  0  0  0
   -4.1640    3.2626    0.0000 C   0  0  0  0  0  0  0  0  0  0  0  0
   -3.4140    4.5616    0.0000 O   0  0  0  0  0  0  0  0  0  0  0  0
   -3.4140    1.9635    0.0000 O   0  0  0  0  0  0  0  0  0  0  0  0
   -4.1640    0.6645    0.0000 C   0  0  0  0  0  0  0  0  0  0  0  0
   -5.6557    0.5077    0.0000 C   0  0  0  0  0  0  0  0  0  0  0  0
   -5.9676   -0.9595    0.0000 O   0  0  0  0  0  0  0  0  0  0  0  0
   -4.6686   -1.7095    0.0000 C   0  0  0  0  0  0  0  0  0  0  0  0
   -4.0585   -3.0798    0.0000 O   0  0  0  0  0  0  0  0  0  0  0  0
   -2.5667   -2.9231    0.0000 C   0  0  0  0  0  0  0  0  0  0  0  0
   -2.2548   -1.4558    0.0000 C   0  0  0  0  0  0  0  0  0  0  0  0
   -3.5539   -0.7058    0.0000 C   0  0  0  0  0  0  0  0  0  0  0  0
  1  2  1  0
  2  3  2  0
  2  4  1  0
  4  5  1  0
  5  6  1  0
  6  7  2  0
  7  8  1  0
  8  9  2  0
  9 10  1  0
 10 11  2  0
  4 12  1  0
 12 13  1  0
 13 14  2  0
 13 15  1  0
 15 16  1  0
 16 17  1  0
 17 18  2  0
 18 19  1  0
 19 20  2  0
 20 21  1  0
 21 22  2  0
 15 23  1  0
 23 24  1  0
 24 25  2  0
 24 26  1  0
 26 27  1  0
 27 28  1  0
 28 29  2  0
 29 30  1  0
 30 31  2  0
 31 32  1  0
 32 33  2  0
 26 34  1  0
 34 35  1  0
 35 36  2  0
 35 37  1  0
 37 38  1  0
 38 39  1  0
 39 40  2  0
 40 41  1  0
 41 42  2  0
 42 43  1  0
 43 44  2  0
 37 45  1  0
 45 46  1  0
 46 47  2  0
 46 48  1  0
 48 49  1  0
 49 50  1  0
 50 51  2  0
 51 52  1  0
 52 53  2  0
 53 54  1  0
 54 55  2  0
 48 56  1  0
 56 57  1  0
 57 58  2  0
 57 59  1  0
 59 60  1  0
 60 61  1  0
 61 62  1  0
 62 63  1  0
 63 64  1  0
 64 65  1  0
 65 66  1  0
 66 67  1  0
 11  6  1  0
 22 17  1  0
 33 28  1  0
 44 39  1  0
 55 50  1  0
 67 60  1  0
 67 63  1  0
M  END
>  <Title>  (106) 
idAAEBgen7

$$$$

     RDKit          2D

 77 83  0  0  0  0  0  0  0  0999 V2000
    9.3360   11.0568    0.0000 C   0  0  0  0  0  0  0  0  0  0  0  0
    7.8360   11.0568    0.0000 N   0  0  0  0  0  0  0  0  0  0  0  0
    7.0860    9.7578    0.0000 C   0  0  0  0  0  0  0  0  0  0  0  0
    7.8360    8.4587    0.0000 O   0  0  0  0  0  0  0  0  0  0  0  0
    5.5860    9.7578    0.0000 C   0  0  0  0  0  0  0  0  0  0  0  0
    4.8360   11.0568    0.0000 C   0  0  0  0  0  0  0  0  0  0  0  0
    5.5860   12.3558    0.0000 C   0  0  0  0  0  0  0  0  0  0  0  0
    4.8360   13.6549    0.0000 C   0  0  0  0  0  0  0  0  0  0  0  0
    5.5860   14.9539    0.0000 C   0  0  0  0  0  0  0  0  0  0  0  0
    7.0860   14.9539    0.0000 C   0  0  0  0  0  0  0  0  0  0  0  0
    7.8360   13.6549    0.0000 C   0  0  0  0  0  0  0  0  0  0  0  0
    7.0860   12.3558    0.0000 C   0  0  0  0  0  0  0  0  0  0  0  0
    4.8360    8.4587    0.0000 N   0  0  0  0  0  0  0  0  0  0  0  0
    5.5860    7.1597    0.0000 C   0  0  0  0  0  0  0  0  0  0  0  0
    7.0860    7.1597    0.0000 O   0  0  0  0  0  0  0  0  0  0  0  0
    4.8360    5.8606    0.0000 C   0  0  0  0  0  0  0  0  0  0  0  0
    5.5860    4.5616    0.0000 C   0  0  0  0  0  0  0  0  0  0  0  0
    7.0860    4.5616    0.0000 C   0  0  0  0  0  0  0  0  0  0  0  0
    7.8360    5.8606    0.0000 C   0  0  0  0  0  0  0  0  0  0  0  0
    9.3360    5.8606    0.0000 C   0  0  0  0  0  0  0  0  0  0  0  0
   10.0860    4.5616    0.0000 C   0  0  0  0  0  0  0  0  0  0  0  0
    9.3360    3.2626    0.0000 C   0  0  0  0  0  0  0  0  0  0  0  0
    7.8360    3.2626    0.0000 C   0  0  0  0  0  0  0  0  0  0  0  0
    3.3360    5.8606    0.0000 N   0  0  0  0  0  0  0  0  0  0  0  0
    2.5860    7.1597    0.0000 C   0  0  0  0  0  0  0  0  0  0  0  0
    3.3360    8.4587    0.0000 O   0  0  0  0  0  0  0  0  0  0  0  0
    1.0860    7.1597    0.0000 C   0  0  0  0  0  0  0  0  0  0  0  0
    0.3360    5.8606    0.0000 C   0  0  0  0  0  0  0  0  0  0  0  0
    1.0860    4.5616    0.0000 C   0  0  0  0  0  0  0  0  0  0  0  0
    2.5860    4.5616    0.0000 C   0  0  0  0  0  0  0  0  0  0  0  0
    3.3360    3.2626    0.0000 C   0  0  0  0  0  0  0  0  0  0  0  0
    2.5860    1.9635    0.0000 C   0  0  0  0  0  0  0  0  0  0  0  0
    1.0860    1.9635    0.0000 C   0  0  0  0  0  0  0  0  0  0  0  0
    0.3360    3.2626    0.0000 C   0  0  0  0  0  0  0  0  0  0  0  0
    0.3360    8.4587    0.0000 N   0  0  0  0  0  0  0  0  0  0  0  0
   -1.1640    8.4587    0.0000 C   0  0  0  0  0  0  0  0  0  0  0  0
   -1.9140    7.1597    0.0000 O   0  0  0  0  0  0  0  0  0  0  0  0
   -1.9140    9.7578    0.0000 C   0  0  0  0  0  0  0  0  0  0  0  0
   -1.1640   11.0568    0.0000 C   0  0  0  0  0  0  0  0  0  0  0  0
    0.3360   11.0568    0.0000 C   0  0  0  0  0  0  0  0  0  0  0  0
    1.0860    9.7578    0.0000 C   0  0  0  0  0  0  0  0  0  0  0  0
    2.5860    9.7578    0.0000 C   0  0  0  0  0  0  0  0  0  0  0  0
    3.3360   11.0568    0.0000 C   0  0  0  0  0  0  0  0  0  0  0  0
    2.5860   12.3558    0.0000 C   0  0  0  0  0  0  0  0  0  0  0  0
    1.0860   12.3558    0.0000 C   0  0  0  0  0  0  0  0  0  0  0  0
   -3.4140    9.7578    0.0000 N   0  0  0  0  0  0  0  0  0  0  0  0
   -4.1640    8.4587    0.0000 C   0  0  0  0  0  0  0  0  0  0  0  0
   -3.4140    7.1597    0.0000 O   0  0  0  0  0  0  0  0  0  0  0  0
   -5.6640    8.4587    0.0000 C   0  0  0  0  0  0  0  0  0  0  0  0
   -6.4140    7.1597    0.0000 C   0  0  0  0  0  0  0  0  0  0  0  0
   -5.6640    5.8606    0.0000 C   0  0  0  0  0  0  0  0  0  0  0  0
   -6.9630    5.1106    0.0000 C   0  0  0  0  0  0  0  0  0  0  0  0
   -4.3649    6.6106    0.0000 C   0  0  0  0  0  0  0  0  0  0  0  0
   -4.9140    4.5616    0.0000 C   0  0  0  0  0  0  0  0  0  0  0  0
   -6.4140    9.7578    0.0000 N   0  0  0  0  0  0  0  0  0  0  0  0
   -5.6640   11.0568    0.0000 C   0  0  0  0  0  0  0  0  0  0  0  0
   -4.1640   11.0568    0.0000 O   0  0  0  0  0  0  0  0  0  0  0  0
   -6.4140   12.3558    0.0000 C   0  0  0  0  0  0  0  0  0  0  0  0
   -7.9140   12.3558    0.0000 C   0  0  0  0  0  0  0  0  0  0  0  0
   -8.6640   11.0568    0.0000 C   0  0  0  0  0  0  0  0  0  0  0  0
   -7.9140    9.7578    0.0000 C   0  0  0  0  0  0  0  0  0  0  0  0
   -8.6640    8.4587    0.0000 C   0  0  0  0  0  0  0  0  0  0  0  0
  -10.1640    8.4587    0.0000 C   0  0  0  0  0  0  0  0  0  0  0  0
  -10.9140    9.7578    0.0000 C   0  0  0  0  0  0  0  0  0  0  0  0
  -10.1640   11.0568    0.0000 C   0  0  0  0  0  0  0  0  0  0  0  0
   -5.6640   13.6549    0.0000 N   0  0  0  0  0  0  0  0  0  0  0  0
   -4.1640   13.6549    0.0000 C   0  0  0  0  0  0  0  0  0  0  0  0
   -3.4140   12.3558    0.0000 O   0  0  0  0  0  0  0  0  0  0  0  0
   -3.4140   14.9539    0.0000 O   0  0  0  0  0  0  0  0  0  0  0  0
   -1.9140   14.9539    0.0000 C   0  0  0  0  0  0  0  0  0  0  0  0
   -1.0323   13.7404    0.0000 C   0  0  0  0  0  0  0  0  0  0  0  0
    0.3943   14.2039    0.0000 O   0  0  0  0  0  0  0  0  0  0  0  0
    0.3943   15.7039    0.0000 C   0  0  0  0  0  0  0  0  0  0  0  0
    1.2760   16.9174    0.0000 O   0  0  0  0  0  0  0  0  0  0  0  0
    0.3943   18.1310    0.0000 C   0  0  0  0  0  0  0  0  0  0  0  0
   -1.0323   17.6674    0.0000 C   0  0  0  0  0  0  0  0  0  0  0  0
   -1.0323   16.1674    0.0000 C   0  0  0  0  0  0  0  0  0  0  0  0
  1  2  1  0
  2  3  1  0
  3  4  2  0
  3  5  1  0
  5  6  1  0
  6  7  1  0
  7  8  2  0
  8  9  1  0
  9 10  2  0
 10 11  1  0
 11 12  2  0
  5 13  1  0
 13 14  1  0
 14 15  2  0
 14 16  1  0
 16 17  1  0
 17 18  1  0
 18 19  2  0
 19 20  1  0
 20 21  2  0
 21 22  1  0
 22 23  2  0
 16 24  1  0
 24 25  1  0
 25 26  2  0
 25 27  1  0
 27 28  1  0
 28 29  1  0
 29 30  2  0
 30 31  1  0
 31 32  2  0
 32 33  1  0
 33 34  2  0
 27 35  1  0
 35 36  1  0
 36 37  2  0
 36 38  1  0
 38 39  1  0
 39 40  1  0
 40 41  2  0
 41 42  1  0
 42 43  2  0
 43 44  1  0
 44 45  2  0
 38 46  1  0
 46 47  1  0
 47 48  2  0
 47 49  1  0
 49 50  1  0
 50 51  1  0
 51 52  1  0
 51 53  1  0
 51 54  1  0
 49 55  1  0
 55 56  1  0
 56 57  2  0
 56 58  1  0
 58 59  1  0
 59 60  1  0
 60 61  2  0
 61 62  1  0
 62 63  2  0
 63 64  1  0
 64 65  2  0
 58 66  1  0
 66 67  1  0
 67 68  2  0
 67 69  1  0
 69 70  1  0
 70 71  1  0
 71 72  1  0
 72 73  1  0
 73 74  1  0
 74 75  1  0
 75 76  1  0
 76 77  1  0
 12  7  1  0
 23 18  1  0
 34 29  1  0
 45 40  1  0
 65 60  1  0
 77 70  1  0
 77 73  1  0
M  END
>  <Title>  (107) 
idAAECgen7

$$$$

     RDKit          2D

 50 55  0  0  0  0  0  0  0  0999 V2000
   -7.9140   11.2578    0.0000 C   0  0  0  0  0  0  0  0  0  0  0  0
   -7.9140    9.7578    0.0000 C   0  0  0  0  0  0  0  0  0  0  0  0
   -7.9140    8.2578    0.0000 C   0  0  0  0  0  0  0  0  0  0  0  0
   -9.4140    9.7578    0.0000 C   0  0  0  0  0  0  0  0  0  0  0  0
   -6.4140    9.7578    0.0000 C   0  0  0  0  0  0  0  0  0  0  0  0
   -5.6640    8.4587    0.0000 C   0  0  0  0  0  0  0  0  0  0  0  0
   -6.4140    7.1597    0.0000 N   0  0  0  0  0  0  0  0  0  0  0  0
   -5.6640    5.8606    0.0000 C   0  0  0  0  0  0  0  0  0  0  0  0
   -4.1640    5.8606    0.0000 O   0  0  0  0  0  0  0  0  0  0  0  0
   -6.4140    4.5616    0.0000 C   0  0  0  0  0  0  0  0  0  0  0  0
   -7.9140    4.5616    0.0000 C   0  0  0  0  0  0  0  0  0  0  0  0
   -8.6640    5.8606    0.0000 C   0  0  0  0  0  0  0  0  0  0  0  0
   -7.9140    7.1597    0.0000 C   0  0  0  0  0  0  0  0  0  0  0  0
   -8.6640    8.4587    0.0000 C   0  0  0  0  0  0  0  0  0  0  0  0
  -10.1640    8.4587    0.0000 C   0  0  0  0  0  0  0  0  0  0  0  0
  -10.9140    7.1597    0.0000 C   0  0  0  0  0  0  0  0  0  0  0  0
  -10.1640    5.8606    0.0000 C   0  0  0  0  0  0  0  0  0  0  0  0
   -5.6640    3.2626    0.0000 N   0  0  0  0  0  0  0  0  0  0  0  0
   -4.1640    3.2626    0.0000 C   0  0  0  0  0  0  0  0  0  0  0  0
   -3.4140    4.5616    0.0000 O   0  0  0  0  0  0  0  0  0  0  0  0
   -3.4140    1.9635    0.0000 O   0  0  0  0  0  0  0  0  0  0  0  0
   -1.9140    1.9635    0.0000 C   0  0  0  0  0  0  0  0  0  0  0  0
   -1.0323    3.1771    0.0000 C   0  0  0  0  0  0  0  0  0  0  0  0
    0.3943    2.7135    0.0000 O   0  0  0  0  0  0  0  0  0  0  0  0
    0.3943    1.2135    0.0000 C   0  0  0  0  0  0  0  0  0  0  0  0
    1.2760    0.0000    0.0000 O   0  0  0  0  0  0  0  0  0  0  0  0
    0.3943   -1.2135    0.0000 C   0  0  0  0  0  0  0  0  0  0  0  0
   -1.0323   -0.7500    0.0000 C   0  0  0  0  0  0  0  0  0  0  0  0
   -1.0323    0.7500    0.0000 C   0  0  0  0  0  0  0  0  0  0  0  0
   -4.1640    8.4587    0.0000 S   0  0  0  0  0  0  0  0  0  0  0  0
   -4.1640    6.9587    0.0000 O   0  0  0  0  0  0  0  0  0  0  0  0
   -4.1640    9.9587    0.0000 O   0  0  0  0  0  0  0  0  0  0  0  0
   -2.6640    8.4587    0.0000 C   0  0  0  0  0  0  0  0  0  0  0  0
   -1.9140    7.1597    0.0000 C   0  0  0  0  0  0  0  0  0  0  0  0
   -0.4140    7.1597    0.0000 C   0  0  0  0  0  0  0  0  0  0  0  0
    0.3360    8.4587    0.0000 C   0  0  0  0  0  0  0  0  0  0  0  0
    1.8360    8.4587    0.0000 C   0  0  0  0  0  0  0  0  0  0  0  0
    2.5860    7.1597    0.0000 C   0  0  0  0  0  0  0  0  0  0  0  0
    4.0860    7.1597    0.0000 C   0  0  0  0  0  0  0  0  0  0  0  0
    4.8360    8.4587    0.0000 C   0  0  0  0  0  0  0  0  0  0  0  0
    6.3360    8.4587    0.0000 C   0  0  0  0  0  0  0  0  0  0  0  0
    7.0860    7.1597    0.0000 C   0  0  0  0  0  0  0  0  0  0  0  0
    8.5860    7.1597    0.0000 C   0  0  0  0  0  0  0  0  0  0  0  0
    9.3360    8.4587    0.0000 C   0  0  0  0  0  0  0  0  0  0  0  0
    8.5860    9.7578    0.0000 C   0  0  0  0  0  0  0  0  0  0  0  0
    7.0860    9.7578    0.0000 N   0  0  0  0  0  0  0  0  0  0  0  0
    4.0860    9.7578    0.0000 C   0  0  0  0  0  0  0  0  0  0  0  0
    2.5860    9.7578    0.0000 C   0  0  0  0  0  0  0  0  0  0  0  0
   -0.4140    9.7578    0.0000 C   0  0  0  0  0  0  0  0  0  0  0  0
   -1.9140    9.7578    0.0000 C   0  0  0  0  0  0  0  0  0  0  0  0
  1  2  1  0
  2  3  1  0
  2  4  1  0
  2  5  1  0
  5  6  1  0
  6  7  1  0
  7  8  1  0
  8  9  2  0
  8 10  1  0
 10 11  1  0
 11 12  1  0
 12 13  2  0
 13 14  1  0
 14 15  2  0
 15 16  1  0
 16 17  2  0
 10 18  1  0
 18 19  1  0
 19 20  2  0
 19 21  1  0
 21 22  1  0
 22 23  1  0
 23 24  1  0
 24 25  1  0
 25 26  1  0
 26 27  1  0
 27 28  1  0
 28 29  1  0
  6 30  1  0
 30 31  2  0
 30 32  2  0
 30 33  1  0
 33 34  2  0
 34 35  1  0
 35 36  2  0
 36 37  1  0
 37 38  2  0
 38 39  1  0
 39 40  2  0
 40 41  1  0
 41 42  2  0
 42 43  1  0
 43 44  2  0
 44 45  1  0
 45 46  2  0
 40 47  1  0
 47 48  2  0
 36 49  1  0
 49 50  2  0
 17 12  1  0
 29 22  1  0
 50 33  1  0
 29 25  1  0
 48 37  1  0
 46 41  1  0
M  END
>  <Title>  (108) 
idAAEDgen7

$$$$

     RDKit          2D

 77 83  0  0  0  0  0  0  0  0999 V2000
    7.0860    9.7578    0.0000 C   0  0  0  0  0  0  0  0  0  0  0  0
    5.5860    9.7578    0.0000 N   0  0  0  0  0  0  0  0  0  0  0  0
    4.8360    8.4587    0.0000 C   0  0  0  0  0  0  0  0  0  0  0  0
    5.5860    7.1597    0.0000 O   0  0  0  0  0  0  0  0  0  0  0  0
    3.3360    8.4587    0.0000 C   0  0  0  0  0  0  0  0  0  0  0  0
    2.5860    9.7578    0.0000 C   0  0  0  0  0  0  0  0  0  0  0  0
    3.3360   11.0568    0.0000 C   0  0  0  0  0  0  0  0  0  0  0  0
    2.5860   12.3558    0.0000 C   0  0  0  0  0  0  0  0  0  0  0  0
    3.3360   13.6549    0.0000 C   0  0  0  0  0  0  0  0  0  0  0  0
    4.8360   13.6549    0.0000 C   0  0  0  0  0  0  0  0  0  0  0  0
    5.5860   12.3558    0.0000 C   0  0  0  0  0  0  0  0  0  0  0  0
    4.8360   11.0568    0.0000 C   0  0  0  0  0  0  0  0  0  0  0  0
    2.5860    7.1597    0.0000 N   0  0  0  0  0  0  0  0  0  0  0  0
    3.3360    5.8606    0.0000 C   0  0  0  0  0  0  0  0  0  0  0  0
    4.8360    5.8606    0.0000 O   0  0  0  0  0  0  0  0  0  0  0  0
    2.5860    4.5616    0.0000 C   0  0  0  0  0  0  0  0  0  0  0  0
    3.3360    3.2626    0.0000 C   0  0  0  0  0  0  0  0  0  0  0  0
    4.8360    3.2626    0.0000 C   0  0  0  0  0  0  0  0  0  0  0  0
    5.5860    4.5616    0.0000 C   0  0  0  0  0  0  0  0  0  0  0  0
    7.0860    4.5616    0.0000 C   0  0  0  0  0  0  0  0  0  0  0  0
    7.8360    3.2626    0.0000 C   0  0  0  0  0  0  0  0  0  0  0  0
    7.0860    1.9635    0.0000 C   0  0  0  0  0  0  0  0  0  0  0  0
    5.5860    1.9635    0.0000 C   0  0  0  0  0  0  0  0  0  0  0  0
    1.0860    4.5616    0.0000 N   0  0  0  0  0  0  0  0  0  0  0  0
    0.3360    5.8606    0.0000 C   0  0  0  0  0  0  0  0  0  0  0  0
    1.0860    7.1597    0.0000 O   0  0  0  0  0  0  0  0  0  0  0  0
   -1.1640    5.8606    0.0000 C   0  0  0  0  0  0  0  0  0  0  0  0
   -1.9140    4.5616    0.0000 C   0  0  0  0  0  0  0  0  0  0  0  0
   -1.1640    3.2626    0.0000 C   0  0  0  0  0  0  0  0  0  0  0  0
    0.3360    3.2626    0.0000 C   0  0  0  0  0  0  0  0  0  0  0  0
    1.0860    1.9635    0.0000 C   0  0  0  0  0  0  0  0  0  0  0  0
    0.3360    0.6645    0.0000 C   0  0  0  0  0  0  0  0  0  0  0  0
   -1.1640    0.6645    0.0000 C   0  0  0  0  0  0  0  0  0  0  0  0
   -1.9140    1.9635    0.0000 C   0  0  0  0  0  0  0  0  0  0  0  0
   -1.9140    7.1597    0.0000 N   0  0  0  0  0  0  0  0  0  0  0  0
   -1.1640    8.4587    0.0000 C   0  0  0  0  0  0  0  0  0  0  0  0
    0.3360    8.4587    0.0000 O   0  0  0  0  0  0  0  0  0  0  0  0
   -1.9140    9.7578    0.0000 C   0  0  0  0  0  0  0  0  0  0  0  0
   -1.1640   11.0568    0.0000 C   0  0  0  0  0  0  0  0  0  0  0  0
    0.3360   11.0568    0.0000 C   0  0  0  0  0  0  0  0  0  0  0  0
    0.3360   12.5568    0.0000 C   0  0  0  0  0  0  0  0  0  0  0  0
    0.3360    9.5568    0.0000 C   0  0  0  0  0  0  0  0  0  0  0  0
    1.8360   11.0568    0.0000 C   0  0  0  0  0  0  0  0  0  0  0  0
   -3.4140    9.7578    0.0000 N   0  0  0  0  0  0  0  0  0  0  0  0
   -4.1640    8.4587    0.0000 C   0  0  0  0  0  0  0  0  0  0  0  0
   -3.4140    7.1597    0.0000 O   0  0  0  0  0  0  0  0  0  0  0  0
   -5.6640    8.4587    0.0000 C   0  0  0  0  0  0  0  0  0  0  0  0
   -6.4140    7.1597    0.0000 C   0  0  0  0  0  0  0  0  0  0  0  0
   -5.6640    5.8606    0.0000 C   0  0  0  0  0  0  0  0  0  0  0  0
   -4.1640    5.8606    0.0000 C   0  0  0  0  0  0  0  0  0  0  0  0
   -3.4140    4.5616    0.0000 C   0  0  0  0  0  0  0  0  0  0  0  0
   -4.1640    3.2626    0.0000 C   0  0  0  0  0  0  0  0  0  0  0  0
   -5.6640    3.2626    0.0000 C   0  0  0  0  0  0  0  0  0  0  0  0
   -6.4140    4.5616    0.0000 C   0  0  0  0  0  0  0  0  0  0  0  0
   -6.4140    9.7578    0.0000 N   0  0  0  0  0  0  0  0  0  0  0  0
   -5.6640   11.0568    0.0000 C   0  0  0  0  0  0  0  0  0  0  0  0
   -4.1640   11.0568    0.0000 O   0  0  0  0  0  0  0  0  0  0  0  0
   -6.4140   12.3558    0.0000 C   0  0  0  0  0  0  0  0  0  0  0  0
   -7.9140   12.3558    0.0000 C   0  0  0  0  0  0  0  0  0  0  0  0
   -8.6640   11.0568    0.0000 C   0  0  0  0  0  0  0  0  0  0  0  0
   -7.9140    9.7578    0.0000 C   0  0  0  0  0  0  0  0  0  0  0  0
   -8.6640    8.4587    0.0000 C   0  0  0  0  0  0  0  0  0  0  0  0
  -10.1640    8.4587    0.0000 C   0  0  0  0  0  0  0  0  0  0  0  0
  -10.9140    9.7578    0.0000 C   0  0  0  0  0  0  0  0  0  0  0  0
  -10.1640   11.0568    0.0000 C   0  0  0  0  0  0  0  0  0  0  0  0
   -5.6640   13.6549    0.0000 N   0  0  0  0  0  0  0  0  0  0  0  0
   -4.1640   13.6549    0.0000 C   0  0  0  0  0  0  0  0  0  0  0  0
   -3.4140   12.3558    0.0000 O   0  0  0  0  0  0  0  0  0  0  0  0
   -3.4140   14.9539    0.0000 O   0  0  0  0  0  0  0  0  0  0  0  0
   -1.9140   14.9539    0.0000 C   0  0  0  0  0  0  0  0  0  0  0  0
   -1.0323   13.7404    0.0000 C   0  0  0  0  0  0  0  0  0  0  0  0
    0.3943   14.2039    0.0000 O   0  0  0  0  0  0  0  0  0  0  0  0
    0.3943   15.7039    0.0000 C   0  0  0  0  0  0  0  0  0  0  0  0
    1.2760   16.9174    0.0000 O   0  0  0  0  0  0  0  0  0  0  0  0
    0.3943   18.1310    0.0000 C   0  0  0  0  0  0  0  0  0  0  0  0
   -1.0323   17.6674    0.0000 C   0  0  0  0  0  0  0  0  0  0  0  0
   -1.0323   16.1674    0.0000 C   0  0  0  0  0  0  0  0  0  0  0  0
  1  2  1  0
  2  3  1  0
  3  4  2  0
  3  5  1  0
  5  6  1  0
  6  7  1  0
  7  8  2  0
  8  9  1  0
  9 10  2  0
 10 11  1  0
 11 12  2  0
  5 13  1  0
 13 14  1  0
 14 15  2  0
 14 16  1  0
 16 17  1  0
 17 18  1  0
 18 19  2  0
 19 20  1  0
 20 21  2  0
 21 22  1  0
 22 23  2  0
 16 24  1  0
 24 25  1  0
 25 26  2  0
 25 27  1  0
 27 28  1  0
 28 29  1  0
 29 30  2  0
 30 31  1  0
 31 32  2  0
 32 33  1  0
 33 34  2  0
 27 35  1  0
 35 36  1  0
 36 37  2  0
 36 38  1  0
 38 39  1  0
 39 40  1  0
 40 41  1  0
 40 42  1  0
 40 43  1  0
 38 44  1  0
 44 45  1  0
 45 46  2  0
 45 47  1  0
 47 48  1  0
 48 49  1  0
 49 50  2  0
 50 51  1  0
 51 52  2  0
 52 53  1  0
 53 54  2  0
 47 55  1  0
 55 56  1  0
 56 57  2  0
 56 58  1  0
 58 59  1  0
 59 60  1  0
 60 61  2  0
 61 62  1  0
 62 63  2  0
 63 64  1  0
 64 65  2  0
 58 66  1  0
 66 67  1  0
 67 68  2  0
 67 69  1  0
 69 70  1  0
 70 71  1  0
 71 72  1  0
 72 73  1  0
 73 74  1  0
 74 75  1  0
 75 76  1  0
 76 77  1  0
 12  7  1  0
 23 18  1  0
 34 29  1  0
 54 49  1  0
 65 60  1  0
 77 70  1  0
 77 73  1  0
M  END
>  <Title>  (109) 
idAAEEgen7

$$$$

     RDKit          2D

 70 75  0  0  0  0  0  0  0  0999 V2000
   -5.3849    0.4488    0.0000 C   0  0  0  0  0  0  0  0  0  0  0  0
   -3.9583   -0.0147    0.0000 C   0  0  0  0  0  0  0  0  0  0  0  0
   -2.5317   -0.4783    0.0000 C   0  0  0  0  0  0  0  0  0  0  0  0
   -3.4948    1.4118    0.0000 C   0  0  0  0  0  0  0  0  0  0  0  0
   -4.4218   -1.4413    0.0000 C   0  0  0  0  0  0  0  0  0  0  0  0
   -3.4182   -2.5560    0.0000 C   0  0  0  0  0  0  0  0  0  0  0  0
   -1.9509   -2.2442    0.0000 O   0  0  0  0  0  0  0  0  0  0  0  0
   -3.8817   -3.9826    0.0000 N   0  0  0  0  0  0  0  0  0  0  0  0
   -5.3083   -4.4462    0.0000 C   0  0  0  0  0  0  0  0  0  0  0  0
   -5.3083   -5.9462    0.0000 C   0  0  0  0  0  0  0  0  0  0  0  0
   -3.8817   -6.4097    0.0000 C   0  0  0  0  0  0  0  0  0  0  0  0
   -3.0000   -5.1962    0.0000 C   0  0  0  0  0  0  0  0  0  0  0  0
   -1.5000   -5.1962    0.0000 C   0  0  0  0  0  0  0  0  0  0  0  0
   -0.7500   -6.4952    0.0000 O   0  0  0  0  0  0  0  0  0  0  0  0
   -0.7500   -3.8971    0.0000 N   0  0  0  0  0  0  0  0  0  0  0  0
    0.7500   -3.8971    0.0000 C   0  0  0  0  0  0  0  0  0  0  0  0
    1.5000   -2.5981    0.0000 C   0  0  0  0  0  0  0  0  0  0  0  0
    0.7500   -1.2990    0.0000 C   0  0  0  0  0  0  0  0  0  0  0  0
    1.5000    0.0000    0.0000 C   0  0  0  0  0  0  0  0  0  0  0  0
    0.7500    1.2990    0.0000 C   0  0  0  0  0  0  0  0  0  0  0  0
   -0.7500    1.2990    0.0000 C   0  0  0  0  0  0  0  0  0  0  0  0
   -1.5000    0.0000    0.0000 C   0  0  0  0  0  0  0  0  0  0  0  0
   -0.7500   -1.2990    0.0000 C   0  0  0  0  0  0  0  0  0  0  0  0
    1.5000   -5.1962    0.0000 C   0  0  0  0  0  0  0  0  0  0  0  0
    3.0000   -5.1962    0.0000 O   0  0  0  0  0  0  0  0  0  0  0  0
    0.7500   -6.4952    0.0000 N   0  0  0  0  0  0  0  0  0  0  0  0
    1.5000   -7.7942    0.0000 C   0  0  0  0  0  0  0  0  0  0  0  0
    0.7500   -9.0933    0.0000 C   0  0  0  0  0  0  0  0  0  0  0  0
    1.5000  -10.3923    0.0000 C   0  0  0  0  0  0  0  0  0  0  0  0
    0.7500  -11.6913    0.0000 C   0  0  0  0  0  0  0  0  0  0  0  0
    1.5000  -12.9904    0.0000 C   0  0  0  0  0  0  0  0  0  0  0  0
    3.0000  -12.9904    0.0000 C   0  0  0  0  0  0  0  0  0  0  0  0
    3.7500  -11.6913    0.0000 C   0  0  0  0  0  0  0  0  0  0  0  0
    3.0000  -10.3923    0.0000 C   0  0  0  0  0  0  0  0  0  0  0  0
    3.0000   -7.7942    0.0000 C   0  0  0  0  0  0  0  0  0  0  0  0
    3.7500   -6.4952    0.0000 O   0  0  0  0  0  0  0  0  0  0  0  0
    3.7500   -9.0933    0.0000 N   0  0  0  0  0  0  0  0  0  0  0  0
    5.2500   -9.0933    0.0000 C   0  0  0  0  0  0  0  0  0  0  0  0
    6.0000  -10.3923    0.0000 C   0  0  0  0  0  0  0  0  0  0  0  0
    7.5000  -10.3923    0.0000 C   0  0  0  0  0  0  0  0  0  0  0  0
    8.2500  -11.6913    0.0000 C   0  0  0  0  0  0  0  0  0  0  0  0
    9.7500  -11.6913    0.0000 C   0  0  0  0  0  0  0  0  0  0  0  0
   10.5000  -10.3923    0.0000 C   0  0  0  0  0  0  0  0  0  0  0  0
    9.7500   -9.0933    0.0000 C   0  0  0  0  0  0  0  0  0  0  0  0
    8.2500   -9.0933    0.0000 C   0  0  0  0  0  0  0  0  0  0  0  0
    6.0000   -7.7942    0.0000 C   0  0  0  0  0  0  0  0  0  0  0  0
    5.2500   -6.4952    0.0000 O   0  0  0  0  0  0  0  0  0  0  0  0
    7.5000   -7.7942    0.0000 N   0  0  0  0  0  0  0  0  0  0  0  0
    8.2500   -6.4952    0.0000 C   0  0  0  0  0  0  0  0  0  0  0  0
    9.7500   -6.4952    0.0000 C   0  0  0  0  0  0  0  0  0  0  0  0
   10.5000   -5.1962    0.0000 C   0  0  0  0  0  0  0  0  0  0  0  0
   12.0000   -5.1962    0.0000 C   0  0  0  0  0  0  0  0  0  0  0  0
   12.7500   -3.8971    0.0000 C   0  0  0  0  0  0  0  0  0  0  0  0
   12.0000   -2.5981    0.0000 C   0  0  0  0  0  0  0  0  0  0  0  0
   10.5000   -2.5981    0.0000 C   0  0  0  0  0  0  0  0  0  0  0  0
    9.7500   -3.8971    0.0000 C   0  0  0  0  0  0  0  0  0  0  0  0
    7.5000   -5.1962    0.0000 C   0  0  0  0  0  0  0  0  0  0  0  0
    6.0000   -5.1962    0.0000 O   0  0  0  0  0  0  0  0  0  0  0  0
    8.2500   -3.8971    0.0000 N   0  0  0  0  0  0  0  0  0  0  0  0
    7.5000   -2.5981    0.0000 C   0  0  0  0  0  0  0  0  0  0  0  0
    8.2500   -1.2990    0.0000 C   0  0  0  0  0  0  0  0  0  0  0  0
    7.5000   -0.0000    0.0000 C   0  0  0  0  0  0  0  0  0  0  0  0
    8.2500    1.2990    0.0000 C   0  0  0  0  0  0  0  0  0  0  0  0
    7.5000    2.5981    0.0000 C   0  0  0  0  0  0  0  0  0  0  0  0
    6.0000    2.5981    0.0000 C   0  0  0  0  0  0  0  0  0  0  0  0
    5.2500    1.2990    0.0000 C   0  0  0  0  0  0  0  0  0  0  0  0
    6.0000    0.0000    0.0000 C   0  0  0  0  0  0  0  0  0  0  0  0
    6.0000   -2.5981    0.0000 C   0  0  0  0  0  0  0  0  0  0  0  0
    5.2500   -3.8971    0.0000 O   0  0  0  0  0  0  0  0  0  0  0  0
    5.2500   -1.2990    0.0000 O   0  0  0  0  0  0  0  0  0  0  0  0
  1  2  1  0
  2  3  1  0
  2  4  1  0
  2  5  1  0
  5  6  1  0
  6  7  2  0
  6  8  1  0
  8  9  1  0
  9 10  1  0
 10 11  1  0
 11 12  1  0
 12 13  1  0
 13 14  2  0
 13 15  1  0
 15 16  1  0
 16 17  1  0
 17 18  1  0
 18 19  2  0
 19 20  1  0
 20 21  2  0
 21 22  1  0
 22 23  2  0
 16 24  1  0
 24 25  2  0
 24 26  1  0
 26 27  1  0
 27 28  1  0
 28 29  1  0
 29 30  2  0
 30 31  1  0
 31 32  2  0
 32 33  1  0
 33 34  2  0
 27 35  1  0
 35 36  2  0
 35 37  1  0
 37 38  1  0
 38 39  1  0
 39 40  1  0
 40 41  2  0
 41 42  1  0
 42 43  2  0
 43 44  1  0
 44 45  2  0
 38 46  1  0
 46 47  2  0
 46 48  1  0
 48 49  1  0
 49 50  1  0
 50 51  1  0
 51 52  2  0
 52 53  1  0
 53 54  2  0
 54 55  1  0
 55 56  2  0
 49 57  1  0
 57 58  2  0
 57 59  1  0
 59 60  1  0
 60 61  1  0
 61 62  1  0
 62 63  2  0
 63 64  1  0
 64 65  2  0
 65 66  1  0
 66 67  2  0
 60 68  1  0
 68 69  2  0
 68 70  1  0
 12  8  1  0
 23 18  1  0
 34 29  1  0
 45 40  1  0
 56 51  1  0
 67 62  1  0
M  END
>  <Title>  (110) 
idAAEFgen7

$$$$

     RDKit          2D

 64 70  0  0  0  0  0  0  0  0999 V2000
   -1.4033    6.9044    0.0000 C   0  0  0  0  0  0  0  0  0  0  0  0
   -2.7242    6.1936    0.0000 C   0  0  0  0  0  0  0  0  0  0  0  0
   -4.0451    5.4828    0.0000 C   0  0  0  0  0  0  0  0  0  0  0  0
   -3.4350    7.5145    0.0000 C   0  0  0  0  0  0  0  0  0  0  0  0
   -2.0134    4.8727    0.0000 N   0  0  0  0  0  0  0  0  0  0  0  0
   -2.8019    3.5967    0.0000 C   0  0  0  0  0  0  0  0  0  0  0  0
   -4.2675    3.2775    0.0000 O   0  0  0  0  0  0  0  0  0  0  0  0
   -2.0911    2.2758    0.0000 C   0  0  0  0  0  0  0  0  0  0  0  0
   -0.5926    2.3431    0.0000 C   0  0  0  0  0  0  0  0  0  0  0  0
    0.3943    1.2135    0.0000 C   0  0  0  0  0  0  0  0  0  0  0  0
    1.2760    0.0000    0.0000 C   0  0  0  0  0  0  0  0  0  0  0  0
    0.3943   -1.2135    0.0000 C   0  0  0  0  0  0  0  0  0  0  0  0
   -1.0323   -0.7500    0.0000 C   0  0  0  0  0  0  0  0  0  0  0  0
   -2.5737   -0.3836    0.0000 C   0  0  0  0  0  0  0  0  0  0  0  0
   -2.9728    1.0623    0.0000 C   0  0  0  0  0  0  0  0  0  0  0  0
   -4.4487    1.3301    0.0000 C   0  0  0  0  0  0  0  0  0  0  0  0
   -5.2813    2.5778    0.0000 O   0  0  0  0  0  0  0  0  0  0  0  0
   -5.4186    0.1859    0.0000 N   0  0  0  0  0  0  0  0  0  0  0  0
   -6.8945    0.4537    0.0000 C   0  0  0  0  0  0  0  0  0  0  0  0
   -7.8644   -0.6905    0.0000 C   0  0  0  0  0  0  0  0  0  0  0  0
   -9.3403   -0.4227    0.0000 C   0  0  0  0  0  0  0  0  0  0  0  0
   -9.8463    0.9894    0.0000 C   0  0  0  0  0  0  0  0  0  0  0  0
  -11.3221    1.2572    0.0000 C   0  0  0  0  0  0  0  0  0  0  0  0
  -12.2920    0.1130    0.0000 C   0  0  0  0  0  0  0  0  0  0  0  0
  -11.7861   -1.2991    0.0000 C   0  0  0  0  0  0  0  0  0  0  0  0
  -10.3102   -1.5669    0.0000 C   0  0  0  0  0  0  0  0  0  0  0  0
   -7.4005    1.8658    0.0000 C   0  0  0  0  0  0  0  0  0  0  0  0
   -6.4306    3.0101    0.0000 O   0  0  0  0  0  0  0  0  0  0  0  0
   -8.8973    1.7686    0.0000 O   0  0  0  0  0  0  0  0  0  0  0  0
   -1.0323    0.7500    0.0000 C   0  0  0  0  0  0  0  0  0  0  0  0
   -2.2458    1.6317    0.0000 C   0  0  0  0  0  0  0  0  0  0  0  0
   -2.0890    3.1235    0.0000 C   0  0  0  0  0  0  0  0  0  0  0  0
   -0.7187    3.7336    0.0000 O   0  0  0  0  0  0  0  0  0  0  0  0
   -3.3025    4.0051    0.0000 C   0  0  0  0  0  0  0  0  0  0  0  0
   -3.1458    5.4969    0.0000 C   0  0  0  0  0  0  0  0  0  0  0  0
   -4.3593    6.3786    0.0000 C   0  0  0  0  0  0  0  0  0  0  0  0
   -4.2025    7.8704    0.0000 C   0  0  0  0  0  0  0  0  0  0  0  0
   -5.4160    8.7521    0.0000 C   0  0  0  0  0  0  0  0  0  0  0  0
   -6.7863    8.1420    0.0000 C   0  0  0  0  0  0  0  0  0  0  0  0
   -6.9431    6.6502    0.0000 C   0  0  0  0  0  0  0  0  0  0  0  0
   -5.7296    5.7685    0.0000 C   0  0  0  0  0  0  0  0  0  0  0  0
   -4.6729    3.3950    0.0000 N   0  0  0  0  0  0  0  0  0  0  0  0
   -5.8864    4.2767    0.0000 C   0  0  0  0  0  0  0  0  0  0  0  0
   -6.0952    5.7621    0.0000 O   0  0  0  0  0  0  0  0  0  0  0  0
   -7.2567    3.6666    0.0000 C   0  0  0  0  0  0  0  0  0  0  0  0
   -8.4702    4.5483    0.0000 C   0  0  0  0  0  0  0  0  0  0  0  0
   -9.8406    3.9382    0.0000 C   0  0  0  0  0  0  0  0  0  0  0  0
  -11.0541    4.8199    0.0000 C   0  0  0  0  0  0  0  0  0  0  0  0
  -12.4244    4.2098    0.0000 C   0  0  0  0  0  0  0  0  0  0  0  0
  -12.5812    2.7180    0.0000 C   0  0  0  0  0  0  0  0  0  0  0  0
  -11.3677    1.8363    0.0000 C   0  0  0  0  0  0  0  0  0  0  0  0
   -9.9973    2.4464    0.0000 C   0  0  0  0  0  0  0  0  0  0  0  0
   -7.4135    2.1748    0.0000 N   0  0  0  0  0  0  0  0  0  0  0  0
   -8.7838    1.5647    0.0000 C   0  0  0  0  0  0  0  0  0  0  0  0
  -10.1746    2.1266    0.0000 O   0  0  0  0  0  0  0  0  0  0  0  0
   -8.9406    0.0729    0.0000 O   0  0  0  0  0  0  0  0  0  0  0  0
  -10.3109   -0.5372    0.0000 C   0  0  0  0  0  0  0  0  0  0  0  0
  -11.6100    0.2128    0.0000 C   0  0  0  0  0  0  0  0  0  0  0  0
  -12.7247   -0.7909    0.0000 O   0  0  0  0  0  0  0  0  0  0  0  0
  -12.1146   -2.1612    0.0000 C   0  0  0  0  0  0  0  0  0  0  0  0
  -12.4264   -3.6284    0.0000 O   0  0  0  0  0  0  0  0  0  0  0  0
  -11.1274   -4.3784    0.0000 C   0  0  0  0  0  0  0  0  0  0  0  0
  -10.0127   -3.3747    0.0000 C   0  0  0  0  0  0  0  0  0  0  0  0
  -10.6228   -2.0044    0.0000 C   0  0  0  0  0  0  0  0  0  0  0  0
  1  2  1  0
  2  3  1  0
  2  4  1  0
  2  5  1  0
  5  6  1  0
  6  7  2  0
  6  8  1  0
  8  9  1  0
  9 10  1  0
 10 11  1  0
 11 12  1  0
 12 13  1  0
 13 14  1  0
 14 15  1  0
 15 16  1  0
 16 17  2  0
 16 18  1  0
 18 19  1  0
 19 20  1  0
 20 21  1  0
 21 22  2  0
 22 23  1  0
 23 24  2  0
 24 25  1  0
 25 26  2  0
 19 27  1  0
 27 28  2  0
 27 29  1  0
 13 30  1  0
 30 31  1  0
 31 32  1  0
 32 33  1  0
 32 34  1  0
 34 35  1  0
 35 36  1  0
 36 37  2  0
 37 38  1  0
 38 39  2  0
 39 40  1  0
 40 41  2  0
 34 42  1  0
 42 43  1  0
 43 44  2  0
 43 45  1  0
 45 46  1  0
 46 47  1  0
 47 48  2  0
 48 49  1  0
 49 50  2  0
 50 51  1  0
 51 52  2  0
 45 53  1  0
 53 54  1  0
 54 55  2  0
 54 56  1  0
 56 57  1  0
 57 58  1  0
 58 59  1  0
 59 60  1  0
 60 61  1  0
 61 62  1  0
 62 63  1  0
 63 64  1  0
 15  8  1  0
 26 21  1  0
 41 36  1  0
 52 47  1  0
 64 57  1  0
 30 10  1  0
 64 60  1  0
M  END
>  <Title>  (111) 
idAAEGgen7

$$$$

     RDKit          2D

 59 64  0  0  0  0  0  0  0  0999 V2000
   -3.0712   10.7089    0.0000 C   0  0  0  0  0  0  0  0  0  0  0  0
   -2.1895    9.4954    0.0000 C   0  0  0  0  0  0  0  0  0  0  0  0
   -1.3079    8.2819    0.0000 C   0  0  0  0  0  0  0  0  0  0  0  0
   -0.9760   10.3771    0.0000 C   0  0  0  0  0  0  0  0  0  0  0  0
   -3.4031    8.6137    0.0000 N   0  0  0  0  0  0  0  0  0  0  0  0
   -3.2463    7.1219    0.0000 C   0  0  0  0  0  0  0  0  0  0  0  0
   -1.8760    6.5118    0.0000 O   0  0  0  0  0  0  0  0  0  0  0  0
   -4.4598    6.2402    0.0000 C   0  0  0  0  0  0  0  0  0  0  0  0
   -5.8864    6.7038    0.0000 C   0  0  0  0  0  0  0  0  0  0  0  0
   -6.7681    5.4902    0.0000 C   0  0  0  0  0  0  0  0  0  0  0  0
   -5.8864    4.2767    0.0000 C   0  0  0  0  0  0  0  0  0  0  0  0
   -4.4598    4.7402    0.0000 N   0  0  0  0  0  0  0  0  0  0  0  0
   -3.2463    3.8586    0.0000 C   0  0  0  0  0  0  0  0  0  0  0  0
   -1.8760    4.4687    0.0000 O   0  0  0  0  0  0  0  0  0  0  0  0
   -3.4031    2.3668    0.0000 N   0  0  0  0  0  0  0  0  0  0  0  0
   -2.1895    1.4851    0.0000 C   0  0  0  0  0  0  0  0  0  0  0  0
   -0.8192    2.0952    0.0000 C   0  0  0  0  0  0  0  0  0  0  0  0
    0.3943    1.2135    0.0000 C   0  0  0  0  0  0  0  0  0  0  0  0
    1.2760    0.0000    0.0000 C   0  0  0  0  0  0  0  0  0  0  0  0
    0.3943   -1.2135    0.0000 C   0  0  0  0  0  0  0  0  0  0  0  0
   -1.0323   -0.7500    0.0000 C   0  0  0  0  0  0  0  0  0  0  0  0
   -2.3463   -0.0067    0.0000 C   0  0  0  0  0  0  0  0  0  0  0  0
   -1.0323    0.7500    0.0000 C   0  0  0  0  0  0  0  0  0  0  0  0
   -2.2458    1.6317    0.0000 C   0  0  0  0  0  0  0  0  0  0  0  0
   -3.6161    1.0216    0.0000 O   0  0  0  0  0  0  0  0  0  0  0  0
   -2.0890    3.1235    0.0000 N   0  0  0  0  0  0  0  0  0  0  0  0
   -3.3025    4.0051    0.0000 C   0  0  0  0  0  0  0  0  0  0  0  0
   -3.1458    5.4969    0.0000 C   0  0  0  0  0  0  0  0  0  0  0  0
   -4.3593    6.3786    0.0000 C   0  0  0  0  0  0  0  0  0  0  0  0
   -4.2025    7.8704    0.0000 C   0  0  0  0  0  0  0  0  0  0  0  0
   -5.4160    8.7521    0.0000 C   0  0  0  0  0  0  0  0  0  0  0  0
   -6.7863    8.1420    0.0000 C   0  0  0  0  0  0  0  0  0  0  0  0
   -6.9431    6.6502    0.0000 C   0  0  0  0  0  0  0  0  0  0  0  0
   -5.7296    5.7685    0.0000 C   0  0  0  0  0  0  0  0  0  0  0  0
   -4.6729    3.3950    0.0000 C   0  0  0  0  0  0  0  0  0  0  0  0
   -6.0637    3.9569    0.0000 O   0  0  0  0  0  0  0  0  0  0  0  0
   -4.8297    1.9033    0.0000 N   0  0  0  0  0  0  0  0  0  0  0  0
   -6.2000    1.2931    0.0000 C   0  0  0  0  0  0  0  0  0  0  0  0
   -6.3568   -0.1986    0.0000 C   0  0  0  0  0  0  0  0  0  0  0  0
   -7.7271   -0.8087    0.0000 C   0  0  0  0  0  0  0  0  0  0  0  0
   -8.9406    0.0729    0.0000 C   0  0  0  0  0  0  0  0  0  0  0  0
  -10.3109   -0.5372    0.0000 C   0  0  0  0  0  0  0  0  0  0  0  0
  -10.4677   -2.0290    0.0000 C   0  0  0  0  0  0  0  0  0  0  0  0
   -9.2542   -2.9106    0.0000 C   0  0  0  0  0  0  0  0  0  0  0  0
   -7.8839   -2.3005    0.0000 C   0  0  0  0  0  0  0  0  0  0  0  0
   -7.4135    2.1748    0.0000 C   0  0  0  0  0  0  0  0  0  0  0  0
   -7.2567    3.6666    0.0000 O   0  0  0  0  0  0  0  0  0  0  0  0
   -8.7838    1.5647    0.0000 N   0  0  0  0  0  0  0  0  0  0  0  0
   -9.9973    2.4464    0.0000 C   0  0  0  0  0  0  0  0  0  0  0  0
  -11.3677    1.8363    0.0000 C   0  0  0  0  0  0  0  0  0  0  0  0
  -12.5812    2.7180    0.0000 C   0  0  0  0  0  0  0  0  0  0  0  0
  -12.4244    4.2098    0.0000 C   0  0  0  0  0  0  0  0  0  0  0  0
  -13.6379    5.0914    0.0000 C   0  0  0  0  0  0  0  0  0  0  0  0
  -15.0082    4.4813    0.0000 C   0  0  0  0  0  0  0  0  0  0  0  0
  -15.1650    2.9895    0.0000 C   0  0  0  0  0  0  0  0  0  0  0  0
  -13.9515    2.1079    0.0000 C   0  0  0  0  0  0  0  0  0  0  0  0
   -9.8406    3.9382    0.0000 C   0  0  0  0  0  0  0  0  0  0  0  0
   -8.4702    4.5483    0.0000 O   0  0  0  0  0  0  0  0  0  0  0  0
  -11.0541    4.8199    0.0000 O   0  0  0  0  0  0  0  0  0  0  0  0
  1  2  1  0
  2  3  1  0
  2  4  1  0
  2  5  1  0
  5  6  1  0
  6  7  2  0
  6  8  1  0
  8  9  1  0
  9 10  1  0
 10 11  1  0
 11 12  1  0
 12 13  1  0
 13 14  2  0
 13 15  1  0
 15 16  1  0
 16 17  1  0
 17 18  1  0
 18 19  1  0
 19 20  1  0
 20 21  1  0
 21 22  1  0
 21 23  1  0
 23 24  1  0
 24 25  2  0
 24 26  1  0
 26 27  1  0
 27 28  1  0
 28 29  1  0
 29 30  2  0
 30 31  1  0
 31 32  2  0
 32 33  1  0
 33 34  2  0
 27 35  1  0
 35 36  2  0
 35 37  1  0
 37 38  1  0
 38 39  1  0
 39 40  1  0
 40 41  2  0
 41 42  1  0
 42 43  2  0
 43 44  1  0
 44 45  2  0
 38 46  1  0
 46 47  2  0
 46 48  1  0
 48 49  1  0
 49 50  1  0
 50 51  1  0
 51 52  2  0
 52 53  1  0
 53 54  2  0
 54 55  1  0
 55 56  2  0
 49 57  1  0
 57 58  2  0
 57 59  1  0
 12  8  1  0
 22 16  1  0
 34 29  1  0
 45 40  1  0
 56 51  1  0
 23 18  1  0
M  END
>  <Title>  (112) 
idAAEHgen7

$$$$

     RDKit          2D

 35 40  0  0  0  0  0  0  0  0999 V2000
   -4.8434    3.3705    0.0000 C   0  0  0  0  0  0  0  0  0  0  0  0
   -3.6706    2.4352    0.0000 C   0  0  0  0  0  0  0  0  0  0  0  0
   -4.8434    1.5000    0.0000 C   0  0  0  0  0  0  0  0  0  0  0  0
   -3.0198    3.7867    0.0000 C   0  0  0  0  0  0  0  0  0  0  0  0
   -1.5574    4.1205    0.0000 C   0  0  0  0  0  0  0  0  0  0  0  0
   -0.3846    3.1852    0.0000 C   0  0  0  0  0  0  0  0  0  0  0  0
   -0.3846    1.6852    0.0000 C   0  0  0  0  0  0  0  0  0  0  0  0
    0.7881    2.6205    0.0000 C   0  0  0  0  0  0  0  0  0  0  0  0
    1.0777    1.3515    0.0000 C   0  0  0  0  0  0  0  0  0  0  0  0
    2.0130    2.5242    0.0000 C   0  0  0  0  0  0  0  0  0  0  0  0
    3.4962    2.3006    0.0000 C   0  0  0  0  0  0  0  0  0  0  0  0
    4.4315    3.4734    0.0000 C   0  0  0  0  0  0  0  0  0  0  0  0
    4.0324    4.9193    0.0000 C   0  0  0  0  0  0  0  0  0  0  0  0
    5.2843    5.7457    0.0000 C   0  0  0  0  0  0  0  0  0  0  0  0
    6.4570    4.8104    0.0000 C   0  0  0  0  0  0  0  0  0  0  0  0
    5.9300    3.4061    0.0000 C   0  0  0  0  0  0  0  0  0  0  0  0
    1.7286    0.0000    0.0000 C   0  0  0  0  0  0  0  0  0  0  0  0
    1.0777   -1.3515    0.0000 C   0  0  0  0  0  0  0  0  0  0  0  0
   -0.3846   -1.6852    0.0000 C   0  0  0  0  0  0  0  0  0  0  0  0
   -1.5574   -0.7500    0.0000 C   0  0  0  0  0  0  0  0  0  0  0  0
   -1.5574    0.7500    0.0000 C   0  0  0  0  0  0  0  0  0  0  0  0
   -2.7301   -0.1852    0.0000 C   0  0  0  0  0  0  0  0  0  0  0  0
   -3.0198    1.0838    0.0000 C   0  0  0  0  0  0  0  0  0  0  0  0
   -3.9550   -0.0890    0.0000 C   0  0  0  0  0  0  0  0  0  0  0  0
   -5.4383    0.1346    0.0000 C   0  0  0  0  0  0  0  0  0  0  0  0
   -6.3735   -1.0381    0.0000 C   0  0  0  0  0  0  0  0  0  0  0  0
   -7.8567   -0.8146    0.0000 C   0  0  0  0  0  0  0  0  0  0  0  0
   -8.7920   -1.9873    0.0000 C   0  0  0  0  0  0  0  0  0  0  0  0
   -8.2440   -3.3836    0.0000 C   0  0  0  0  0  0  0  0  0  0  0  0
   -6.7607   -3.6072    0.0000 C   0  0  0  0  0  0  0  0  0  0  0  0
   -7.2320   -0.3535    0.0000 C   0  0  0  0  0  0  0  0  0  0  0  0
   -8.4048    0.5817    0.0000 C   0  0  0  0  0  0  0  0  0  0  0  0
   -9.3400   -0.5910    0.0000 C   0  0  0  0  0  0  0  0  0  0  0  0
   -6.9215    0.3582    0.0000 C   0  0  0  0  0  0  0  0  0  0  0  0
   -5.8255   -2.4345    0.0000 C   0  0  0  0  0  0  0  0  0  0  0  0
  1  2  1  0
  2  3  1  0
  2  4  1  0
  4  5  1  0
  5  6  1  0
  6  7  1  0
  7  8  1  0
  7  9  1  0
  9 10  1  0
 10 11  1  0
 11 12  1  0
 12 13  1  0
 13 14  1  0
 14 15  1  0
 15 16  1  0
  9 17  1  0
 17 18  1  0
 18 19  1  0
 19 20  1  0
 20 21  1  0
 21 22  1  0
 21 23  1  0
 23 24  1  0
 24 25  1  0
 25 26  1  0
 26 27  1  0
 27 28  1  0
 28 29  1  0
 29 30  1  0
 30 31  1  0
 31 32  1  0
 32 33  1  0
 32 34  1  0
 30 35  1  0
 23  2  1  0
 34 26  1  0
 21  7  1  0
 35 26  1  0
 16 12  1  0
 33 28  1  0
M  END
>  <Title>  (113) 
idAAEIgen7

$$$$

     RDKit          2D

 58 63  0  0  0  0  0  0  0  0999 V2000
   -0.6149   13.1058    0.0000 C   0  0  0  0  0  0  0  0  0  0  0  0
   -1.9140   12.3558    0.0000 C   0  0  0  0  0  0  0  0  0  0  0  0
   -3.2130   11.6058    0.0000 C   0  0  0  0  0  0  0  0  0  0  0  0
   -2.6640   13.6549    0.0000 C   0  0  0  0  0  0  0  0  0  0  0  0
   -1.1640   11.0568    0.0000 C   0  0  0  0  0  0  0  0  0  0  0  0
   -1.9140    9.7578    0.0000 C   0  0  0  0  0  0  0  0  0  0  0  0
   -3.4140    9.7578    0.0000 N   0  0  0  0  0  0  0  0  0  0  0  0
   -4.1640    8.4587    0.0000 C   0  0  0  0  0  0  0  0  0  0  0  0
   -3.4140    7.1597    0.0000 O   0  0  0  0  0  0  0  0  0  0  0  0
   -5.6640    8.4587    0.0000 C   0  0  0  0  0  0  0  0  0  0  0  0
   -6.4140    9.7578    0.0000 C   0  0  0  0  0  0  0  0  0  0  0  0
   -5.6640   11.0568    0.0000 C   0  0  0  0  0  0  0  0  0  0  0  0
   -4.1640   11.0568    0.0000 C   0  0  0  0  0  0  0  0  0  0  0  0
   -3.4140   12.3558    0.0000 C   0  0  0  0  0  0  0  0  0  0  0  0
   -4.1640   13.6549    0.0000 C   0  0  0  0  0  0  0  0  0  0  0  0
   -5.6640   13.6549    0.0000 C   0  0  0  0  0  0  0  0  0  0  0  0
   -6.4140   12.3558    0.0000 C   0  0  0  0  0  0  0  0  0  0  0  0
   -6.4140    7.1597    0.0000 N   0  0  0  0  0  0  0  0  0  0  0  0
   -5.6640    5.8606    0.0000 C   0  0  0  0  0  0  0  0  0  0  0  0
   -4.1640    5.8606    0.0000 O   0  0  0  0  0  0  0  0  0  0  0  0
   -6.4140    4.5616    0.0000 C   0  0  0  0  0  0  0  0  0  0  0  0
   -7.9140    4.5616    0.0000 C   0  0  0  0  0  0  0  0  0  0  0  0
   -8.6640    5.8606    0.0000 C   0  0  0  0  0  0  0  0  0  0  0  0
   -7.9140    7.1597    0.0000 C   0  0  0  0  0  0  0  0  0  0  0  0
   -8.6640    8.4587    0.0000 C   0  0  0  0  0  0  0  0  0  0  0  0
  -10.1640    8.4587    0.0000 C   0  0  0  0  0  0  0  0  0  0  0  0
  -10.9140    7.1597    0.0000 C   0  0  0  0  0  0  0  0  0  0  0  0
  -10.1640    5.8606    0.0000 C   0  0  0  0  0  0  0  0  0  0  0  0
   -5.6640    3.2626    0.0000 N   0  0  0  0  0  0  0  0  0  0  0  0
   -4.1640    3.2626    0.0000 C   0  0  0  0  0  0  0  0  0  0  0  0
   -3.4140    4.5616    0.0000 O   0  0  0  0  0  0  0  0  0  0  0  0
   -3.4140    1.9635    0.0000 O   0  0  0  0  0  0  0  0  0  0  0  0
   -1.9140    1.9635    0.0000 C   0  0  0  0  0  0  0  0  0  0  0  0
   -1.0323    3.1771    0.0000 C   0  0  0  0  0  0  0  0  0  0  0  0
    0.3943    2.7135    0.0000 O   0  0  0  0  0  0  0  0  0  0  0  0
    0.3943    1.2135    0.0000 C   0  0  0  0  0  0  0  0  0  0  0  0
    1.2760    0.0000    0.0000 O   0  0  0  0  0  0  0  0  0  0  0  0
    0.3943   -1.2135    0.0000 C   0  0  0  0  0  0  0  0  0  0  0  0
   -1.0323   -0.7500    0.0000 C   0  0  0  0  0  0  0  0  0  0  0  0
   -1.0323    0.7500    0.0000 C   0  0  0  0  0  0  0  0  0  0  0  0
   -1.1640    8.4587    0.0000 S   0  0  0  0  0  0  0  0  0  0  0  0
   -2.4630    7.7087    0.0000 O   0  0  0  0  0  0  0  0  0  0  0  0
    0.1351    9.2087    0.0000 O   0  0  0  0  0  0  0  0  0  0  0  0
   -0.4140    7.1597    0.0000 C   0  0  0  0  0  0  0  0  0  0  0  0
   -1.1640    5.8606    0.0000 C   0  0  0  0  0  0  0  0  0  0  0  0
   -0.4140    4.5616    0.0000 C   0  0  0  0  0  0  0  0  0  0  0  0
    1.0860    4.5616    0.0000 C   0  0  0  0  0  0  0  0  0  0  0  0
    1.8360    3.2626    0.0000 N   0  0  0  0  0  0  0  0  0  0  0  0
    3.3360    3.2626    0.0000 C   0  0  0  0  0  0  0  0  0  0  0  0
    4.0860    4.5616    0.0000 O   0  0  0  0  0  0  0  0  0  0  0  0
    4.0860    1.9635    0.0000 C   0  0  0  0  0  0  0  0  0  0  0  0
    3.3360    0.6645    0.0000 C   0  0  0  0  0  0  0  0  0  0  0  0
    4.0860   -0.6346    0.0000 C   0  0  0  0  0  0  0  0  0  0  0  0
    5.5860   -0.6346    0.0000 C   0  0  0  0  0  0  0  0  0  0  0  0
    6.3360    0.6645    0.0000 C   0  0  0  0  0  0  0  0  0  0  0  0
    5.5860    1.9635    0.0000 C   0  0  0  0  0  0  0  0  0  0  0  0
    1.8360    5.8606    0.0000 C   0  0  0  0  0  0  0  0  0  0  0  0
    1.0860    7.1597    0.0000 C   0  0  0  0  0  0  0  0  0  0  0  0
  1  2  1  0
  2  3  1  0
  2  4  1  0
  2  5  1  0
  5  6  1  0
  6  7  1  0
  7  8  1  0
  8  9  2  0
  8 10  1  0
 10 11  1  0
 11 12  1  0
 12 13  2  0
 13 14  1  0
 14 15  2  0
 15 16  1  0
 16 17  2  0
 10 18  1  0
 18 19  1  0
 19 20  2  0
 19 21  1  0
 21 22  1  0
 22 23  1  0
 23 24  2  0
 24 25  1  0
 25 26  2  0
 26 27  1  0
 27 28  2  0
 21 29  1  0
 29 30  1  0
 30 31  2  0
 30 32  1  0
 32 33  1  0
 33 34  1  0
 34 35  1  0
 35 36  1  0
 36 37  1  0
 37 38  1  0
 38 39  1  0
 39 40  1  0
  6 41  1  0
 41 42  2  0
 41 43  2  0
 41 44  1  0
 44 45  2  0
 45 46  1  0
 46 47  2  0
 47 48  1  0
 48 49  1  0
 49 50  2  0
 49 51  1  0
 51 52  2  0
 52 53  1  0
 53 54  2  0
 54 55  1  0
 55 56  2  0
 47 57  1  0
 57 58  2  0
 17 12  1  0
 28 23  1  0
 40 33  1  0
 58 44  1  0
 40 36  1  0
 56 51  1  0
M  END
>  <Title>  (114) 
idAAEJgen7

$$$$

     RDKit          2D

 70 75  0  0  0  0  0  0  0  0999 V2000
   -5.3849    0.4488    0.0000 C   0  0  0  0  0  0  0  0  0  0  0  0
   -3.9583   -0.0147    0.0000 C   0  0  0  0  0  0  0  0  0  0  0  0
   -2.5317   -0.4783    0.0000 C   0  0  0  0  0  0  0  0  0  0  0  0
   -3.4948    1.4118    0.0000 C   0  0  0  0  0  0  0  0  0  0  0  0
   -4.4218   -1.4413    0.0000 O   0  0  0  0  0  0  0  0  0  0  0  0
   -3.4182   -2.5560    0.0000 C   0  0  0  0  0  0  0  0  0  0  0  0
   -1.9509   -2.2442    0.0000 O   0  0  0  0  0  0  0  0  0  0  0  0
   -3.8817   -3.9826    0.0000 N   0  0  0  0  0  0  0  0  0  0  0  0
   -5.3083   -4.4462    0.0000 C   0  0  0  0  0  0  0  0  0  0  0  0
   -5.3083   -5.9462    0.0000 C   0  0  0  0  0  0  0  0  0  0  0  0
   -3.8817   -6.4097    0.0000 C   0  0  0  0  0  0  0  0  0  0  0  0
   -3.0000   -5.1962    0.0000 N   0  0  0  0  0  0  0  0  0  0  0  0
   -1.5000   -5.1962    0.0000 C   0  0  0  0  0  0  0  0  0  0  0  0
   -0.7500   -6.4952    0.0000 O   0  0  0  0  0  0  0  0  0  0  0  0
   -0.7500   -3.8971    0.0000 N   0  0  0  0  0  0  0  0  0  0  0  0
    0.7500   -3.8971    0.0000 C   0  0  0  0  0  0  0  0  0  0  0  0
    1.5000   -2.5981    0.0000 C   0  0  0  0  0  0  0  0  0  0  0  0
    0.7500   -1.2990    0.0000 C   0  0  0  0  0  0  0  0  0  0  0  0
    1.5000    0.0000    0.0000 C   0  0  0  0  0  0  0  0  0  0  0  0
    0.7500    1.2990    0.0000 C   0  0  0  0  0  0  0  0  0  0  0  0
   -0.7500    1.2990    0.0000 C   0  0  0  0  0  0  0  0  0  0  0  0
   -1.5000    0.0000    0.0000 C   0  0  0  0  0  0  0  0  0  0  0  0
   -0.7500   -1.2990    0.0000 C   0  0  0  0  0  0  0  0  0  0  0  0
    1.5000   -5.1962    0.0000 C   0  0  0  0  0  0  0  0  0  0  0  0
    3.0000   -5.1962    0.0000 O   0  0  0  0  0  0  0  0  0  0  0  0
    0.7500   -6.4952    0.0000 N   0  0  0  0  0  0  0  0  0  0  0  0
    1.5000   -7.7942    0.0000 C   0  0  0  0  0  0  0  0  0  0  0  0
    0.7500   -9.0933    0.0000 C   0  0  0  0  0  0  0  0  0  0  0  0
    1.5000  -10.3923    0.0000 C   0  0  0  0  0  0  0  0  0  0  0  0
    0.7500  -11.6913    0.0000 C   0  0  0  0  0  0  0  0  0  0  0  0
    1.5000  -12.9904    0.0000 C   0  0  0  0  0  0  0  0  0  0  0  0
    3.0000  -12.9904    0.0000 C   0  0  0  0  0  0  0  0  0  0  0  0
    3.7500  -11.6913    0.0000 C   0  0  0  0  0  0  0  0  0  0  0  0
    3.0000  -10.3923    0.0000 C   0  0  0  0  0  0  0  0  0  0  0  0
    3.0000   -7.7942    0.0000 C   0  0  0  0  0  0  0  0  0  0  0  0
    3.7500   -6.4952    0.0000 O   0  0  0  0  0  0  0  0  0  0  0  0
    3.7500   -9.0933    0.0000 N   0  0  0  0  0  0  0  0  0  0  0  0
    5.2500   -9.0933    0.0000 C   0  0  0  0  0  0  0  0  0  0  0  0
    6.0000  -10.3923    0.0000 C   0  0  0  0  0  0  0  0  0  0  0  0
    7.5000  -10.3923    0.0000 C   0  0  0  0  0  0  0  0  0  0  0  0
    8.2500  -11.6913    0.0000 C   0  0  0  0  0  0  0  0  0  0  0  0
    9.7500  -11.6913    0.0000 C   0  0  0  0  0  0  0  0  0  0  0  0
   10.5000  -10.3923    0.0000 C   0  0  0  0  0  0  0  0  0  0  0  0
    9.7500   -9.0933    0.0000 C   0  0  0  0  0  0  0  0  0  0  0  0
    8.2500   -9.0933    0.0000 C   0  0  0  0  0  0  0  0  0  0  0  0
    6.0000   -7.7942    0.0000 C   0  0  0  0  0  0  0  0  0  0  0  0
    5.2500   -6.4952    0.0000 O   0  0  0  0  0  0  0  0  0  0  0  0
    7.5000   -7.7942    0.0000 N   0  0  0  0  0  0  0  0  0  0  0  0
    8.2500   -6.4952    0.0000 C   0  0  0  0  0  0  0  0  0  0  0  0
    9.7500   -6.4952    0.0000 C   0  0  0  0  0  0  0  0  0  0  0  0
   10.5000   -5.1962    0.0000 C   0  0  0  0  0  0  0  0  0  0  0  0
   12.0000   -5.1962    0.0000 C   0  0  0  0  0  0  0  0  0  0  0  0
   12.7500   -3.8971    0.0000 C   0  0  0  0  0  0  0  0  0  0  0  0
   12.0000   -2.5981    0.0000 C   0  0  0  0  0  0  0  0  0  0  0  0
   10.5000   -2.5981    0.0000 C   0  0  0  0  0  0  0  0  0  0  0  0
    9.7500   -3.8971    0.0000 C   0  0  0  0  0  0  0  0  0  0  0  0
    7.5000   -5.1962    0.0000 C   0  0  0  0  0  0  0  0  0  0  0  0
    6.0000   -5.1962    0.0000 O   0  0  0  0  0  0  0  0  0  0  0  0
    8.2500   -3.8971    0.0000 N   0  0  0  0  0  0  0  0  0  0  0  0
    7.5000   -2.5981    0.0000 C   0  0  0  0  0  0  0  0  0  0  0  0
    8.2500   -1.2990    0.0000 C   0  0  0  0  0  0  0  0  0  0  0  0
    7.5000   -0.0000    0.0000 C   0  0  0  0  0  0  0  0  0  0  0  0
    8.2500    1.2990    0.0000 C   0  0  0  0  0  0  0  0  0  0  0  0
    7.5000    2.5981    0.0000 C   0  0  0  0  0  0  0  0  0  0  0  0
    6.0000    2.5981    0.0000 C   0  0  0  0  0  0  0  0  0  0  0  0
    5.2500    1.2990    0.0000 C   0  0  0  0  0  0  0  0  0  0  0  0
    6.0000    0.0000    0.0000 C   0  0  0  0  0  0  0  0  0  0  0  0
    6.0000   -2.5981    0.0000 C   0  0  0  0  0  0  0  0  0  0  0  0
    5.2500   -3.8971    0.0000 O   0  0  0  0  0  0  0  0  0  0  0  0
    5.2500   -1.2990    0.0000 O   0  0  0  0  0  0  0  0  0  0  0  0
  1  2  1  0
  2  3  1  0
  2  4  1  0
  2  5  1  0
  5  6  1  0
  6  7  2  0
  6  8  1  0
  8  9  1  0
  9 10  1  0
 10 11  1  0
 11 12  1  0
 12 13  1  0
 13 14  2  0
 13 15  1  0
 15 16  1  0
 16 17  1  0
 17 18  1  0
 18 19  2  0
 19 20  1  0
 20 21  2  0
 21 22  1  0
 22 23  2  0
 16 24  1  0
 24 25  2  0
 24 26  1  0
 26 27  1  0
 27 28  1  0
 28 29  1  0
 29 30  2  0
 30 31  1  0
 31 32  2  0
 32 33  1  0
 33 34  2  0
 27 35  1  0
 35 36  2  0
 35 37  1  0
 37 38  1  0
 38 39  1  0
 39 40  1  0
 40 41  2  0
 41 42  1  0
 42 43  2  0
 43 44  1  0
 44 45  2  0
 38 46  1  0
 46 47  2  0
 46 48  1  0
 48 49  1  0
 49 50  1  0
 50 51  1  0
 51 52  2  0
 52 53  1  0
 53 54  2  0
 54 55  1  0
 55 56  2  0
 49 57  1  0
 57 58  2  0
 57 59  1  0
 59 60  1  0
 60 61  1  0
 61 62  1  0
 62 63  2  0
 63 64  1  0
 64 65  2  0
 65 66  1  0
 66 67  2  0
 60 68  1  0
 68 69  2  0
 68 70  1  0
 12  8  1  0
 23 18  1  0
 34 29  1  0
 45 40  1  0
 56 51  1  0
 67 62  1  0
M  END
>  <Title>  (115) 
idAAEKgen7

$$$$

     RDKit          2D

 79 86  0  0  0  0  0  0  0  0999 V2000
    7.0860    1.9635    0.0000 C   0  0  0  0  0  0  0  0  0  0  0  0
    5.5860    1.9635    0.0000 N   0  0  0  0  0  0  0  0  0  0  0  0
    4.8360    3.2626    0.0000 C   0  0  0  0  0  0  0  0  0  0  0  0
    5.5860    4.5616    0.0000 O   0  0  0  0  0  0  0  0  0  0  0  0
    3.3360    3.2626    0.0000 C   0  0  0  0  0  0  0  0  0  0  0  0
    2.5860    1.9635    0.0000 C   0  0  0  0  0  0  0  0  0  0  0  0
    3.3360    0.6645    0.0000 C   0  0  0  0  0  0  0  0  0  0  0  0
    2.5860   -0.6346    0.0000 C   0  0  0  0  0  0  0  0  0  0  0  0
    3.3360   -1.9336    0.0000 C   0  0  0  0  0  0  0  0  0  0  0  0
    4.8360   -1.9336    0.0000 C   0  0  0  0  0  0  0  0  0  0  0  0
    5.5860   -0.6346    0.0000 C   0  0  0  0  0  0  0  0  0  0  0  0
    4.8360    0.6645    0.0000 C   0  0  0  0  0  0  0  0  0  0  0  0
    2.5860    4.5616    0.0000 N   0  0  0  0  0  0  0  0  0  0  0  0
    3.3360    5.8606    0.0000 C   0  0  0  0  0  0  0  0  0  0  0  0
    4.8360    5.8606    0.0000 O   0  0  0  0  0  0  0  0  0  0  0  0
    2.5860    7.1597    0.0000 C   0  0  0  0  0  0  0  0  0  0  0  0
    3.3360    8.4587    0.0000 C   0  0  0  0  0  0  0  0  0  0  0  0
    4.8360    8.4587    0.0000 C   0  0  0  0  0  0  0  0  0  0  0  0
    5.5860    7.1597    0.0000 C   0  0  0  0  0  0  0  0  0  0  0  0
    7.0860    7.1597    0.0000 C   0  0  0  0  0  0  0  0  0  0  0  0
    7.8360    8.4587    0.0000 C   0  0  0  0  0  0  0  0  0  0  0  0
    7.0860    9.7578    0.0000 C   0  0  0  0  0  0  0  0  0  0  0  0
    5.5860    9.7578    0.0000 C   0  0  0  0  0  0  0  0  0  0  0  0
    1.0860    7.1597    0.0000 N   0  0  0  0  0  0  0  0  0  0  0  0
    0.3360    5.8606    0.0000 C   0  0  0  0  0  0  0  0  0  0  0  0
    1.0860    4.5616    0.0000 O   0  0  0  0  0  0  0  0  0  0  0  0
   -1.1640    5.8606    0.0000 C   0  0  0  0  0  0  0  0  0  0  0  0
   -1.9140    4.5616    0.0000 C   0  0  0  0  0  0  0  0  0  0  0  0
   -1.1640    3.2626    0.0000 C   0  0  0  0  0  0  0  0  0  0  0  0
    0.3360    3.2626    0.0000 C   0  0  0  0  0  0  0  0  0  0  0  0
    1.0860    1.9635    0.0000 C   0  0  0  0  0  0  0  0  0  0  0  0
    0.3360    0.6645    0.0000 C   0  0  0  0  0  0  0  0  0  0  0  0
   -1.1640    0.6645    0.0000 C   0  0  0  0  0  0  0  0  0  0  0  0
   -1.9140    1.9635    0.0000 C   0  0  0  0  0  0  0  0  0  0  0  0
   -1.9140    7.1597    0.0000 N   0  0  0  0  0  0  0  0  0  0  0  0
   -1.1640    8.4587    0.0000 C   0  0  0  0  0  0  0  0  0  0  0  0
    0.3360    8.4587    0.0000 O   0  0  0  0  0  0  0  0  0  0  0  0
   -1.9140    9.7578    0.0000 C   0  0  0  0  0  0  0  0  0  0  0  0
   -1.1640   11.0568    0.0000 C   0  0  0  0  0  0  0  0  0  0  0  0
    0.3360   11.0568    0.0000 C   0  0  0  0  0  0  0  0  0  0  0  0
    1.0860    9.7578    0.0000 C   0  0  0  0  0  0  0  0  0  0  0  0
    2.5860    9.7578    0.0000 C   0  0  0  0  0  0  0  0  0  0  0  0
    3.3360   11.0568    0.0000 C   0  0  0  0  0  0  0  0  0  0  0  0
    2.5860   12.3558    0.0000 C   0  0  0  0  0  0  0  0  0  0  0  0
    1.0860   12.3558    0.0000 C   0  0  0  0  0  0  0  0  0  0  0  0
   -3.4140    9.7578    0.0000 N   0  0  0  0  0  0  0  0  0  0  0  0
   -4.1640    8.4587    0.0000 C   0  0  0  0  0  0  0  0  0  0  0  0
   -3.4140    7.1597    0.0000 O   0  0  0  0  0  0  0  0  0  0  0  0
   -5.6640    8.4587    0.0000 C   0  0  0  0  0  0  0  0  0  0  0  0
   -6.4140    7.1597    0.0000 C   0  0  0  0  0  0  0  0  0  0  0  0
   -5.6640    5.8606    0.0000 C   0  0  0  0  0  0  0  0  0  0  0  0
   -4.1640    5.8606    0.0000 C   0  0  0  0  0  0  0  0  0  0  0  0
   -3.4140    4.5616    0.0000 C   0  0  0  0  0  0  0  0  0  0  0  0
   -4.1640    3.2626    0.0000 C   0  0  0  0  0  0  0  0  0  0  0  0
   -5.6640    3.2626    0.0000 C   0  0  0  0  0  0  0  0  0  0  0  0
   -6.4140    4.5616    0.0000 C   0  0  0  0  0  0  0  0  0  0  0  0
   -6.4140    9.7578    0.0000 N   0  0  0  0  0  0  0  0  0  0  0  0
   -5.6640   11.0568    0.0000 C   0  0  0  0  0  0  0  0  0  0  0  0
   -4.1640   11.0568    0.0000 O   0  0  0  0  0  0  0  0  0  0  0  0
   -6.4140   12.3558    0.0000 C   0  0  0  0  0  0  0  0  0  0  0  0
   -7.9140   12.3558    0.0000 C   0  0  0  0  0  0  0  0  0  0  0  0
   -8.6640   11.0568    0.0000 C   0  0  0  0  0  0  0  0  0  0  0  0
   -7.9140    9.7578    0.0000 C   0  0  0  0  0  0  0  0  0  0  0  0
   -8.6640    8.4587    0.0000 C   0  0  0  0  0  0  0  0  0  0  0  0
  -10.1640    8.4587    0.0000 C   0  0  0  0  0  0  0  0  0  0  0  0
  -10.9140    9.7578    0.0000 C   0  0  0  0  0  0  0  0  0  0  0  0
  -10.1640   11.0568    0.0000 C   0  0  0  0  0  0  0  0  0  0  0  0
   -5.6640   13.6549    0.0000 N   0  0  0  0  0  0  0  0  0  0  0  0
   -4.1640   13.6549    0.0000 C   0  0  0  0  0  0  0  0  0  0  0  0
   -3.4140   12.3558    0.0000 O   0  0  0  0  0  0  0  0  0  0  0  0
   -3.4140   14.9539    0.0000 O   0  0  0  0  0  0  0  0  0  0  0  0
   -1.9140   14.9539    0.0000 C   0  0  0  0  0  0  0  0  0  0  0  0
   -1.0323   13.7404    0.0000 C   0  0  0  0  0  0  0  0  0  0  0  0
    0.3943   14.2039    0.0000 O   0  0  0  0  0  0  0  0  0  0  0  0
    0.3943   15.7039    0.0000 C   0  0  0  0  0  0  0  0  0  0  0  0
    1.2760   16.9174    0.0000 O   0  0  0  0  0  0  0  0  0  0  0  0
    0.3943   18.1310    0.0000 C   0  0  0  0  0  0  0  0  0  0  0  0
   -1.0323   17.6674    0.0000 C   0  0  0  0  0  0  0  0  0  0  0  0
   -1.0323   16.1674    0.0000 C   0  0  0  0  0  0  0  0  0  0  0  0
  1  2  1  0
  2  3  1  0
  3  4  2  0
  3  5  1  0
  5  6  1  0
  6  7  1  0
  7  8  2  0
  8  9  1  0
  9 10  2  0
 10 11  1  0
 11 12  2  0
  5 13  1  0
 13 14  1  0
 14 15  2  0
 14 16  1  0
 16 17  1  0
 17 18  1  0
 18 19  2  0
 19 20  1  0
 20 21  2  0
 21 22  1  0
 22 23  2  0
 16 24  1  0
 24 25  1  0
 25 26  2  0
 25 27  1  0
 27 28  1  0
 28 29  1  0
 29 30  2  0
 30 31  1  0
 31 32  2  0
 32 33  1  0
 33 34  2  0
 27 35  1  0
 35 36  1  0
 36 37  2  0
 36 38  1  0
 38 39  1  0
 39 40  1  0
 40 41  2  0
 41 42  1  0
 42 43  2  0
 43 44  1  0
 44 45  2  0
 38 46  1  0
 46 47  1  0
 47 48  2  0
 47 49  1  0
 49 50  1  0
 50 51  1  0
 51 52  2  0
 52 53  1  0
 53 54  2  0
 54 55  1  0
 55 56  2  0
 49 57  1  0
 57 58  1  0
 58 59  2  0
 58 60  1  0
 60 61  1  0
 61 62  1  0
 62 63  2  0
 63 64  1  0
 64 65  2  0
 65 66  1  0
 66 67  2  0
 60 68  1  0
 68 69  1  0
 69 70  2  0
 69 71  1  0
 71 72  1  0
 72 73  1  0
 73 74  1  0
 74 75  1  0
 75 76  1  0
 76 77  1  0
 77 78  1  0
 78 79  1  0
 12  7  1  0
 23 18  1  0
 34 29  1  0
 45 40  1  0
 56 51  1  0
 67 62  1  0
 79 72  1  0
 79 75  1  0
M  END
>  <Title>  (116) 
idAAELgen7

$$$$

     RDKit          2D

 46 52  0  0  0  0  0  0  0  0999 V2000
   -1.9605    4.6312    0.0000 O   0  0  0  0  0  0  0  0  0  0  0  0
   -3.2463    3.8586    0.0000 C   0  0  0  0  0  0  0  0  0  0  0  0
   -3.4031    2.3668    0.0000 N   0  0  0  0  0  0  0  0  0  0  0  0
   -2.1895    1.4851    0.0000 C   0  0  0  0  0  0  0  0  0  0  0  0
   -0.8192    2.0952    0.0000 C   0  0  0  0  0  0  0  0  0  0  0  0
    0.3943    1.2135    0.0000 C   0  0  0  0  0  0  0  0  0  0  0  0
    1.2760    0.0000    0.0000 C   0  0  0  0  0  0  0  0  0  0  0  0
    0.3943   -1.2135    0.0000 C   0  0  0  0  0  0  0  0  0  0  0  0
   -1.0323   -0.7500    0.0000 C   0  0  0  0  0  0  0  0  0  0  0  0
   -2.3463   -0.0067    0.0000 C   0  0  0  0  0  0  0  0  0  0  0  0
   -1.0323    0.7500    0.0000 N   0  0  0  0  0  0  0  0  0  0  0  0
   -2.2458    1.6317    0.0000 C   0  0  0  0  0  0  0  0  0  0  0  0
   -2.0890    3.1235    0.0000 C   0  0  0  0  0  0  0  0  0  0  0  0
   -3.3025    4.0051    0.0000 C   0  0  0  0  0  0  0  0  0  0  0  0
   -3.1458    5.4969    0.0000 C   0  0  0  0  0  0  0  0  0  0  0  0
   -4.3593    6.3786    0.0000 C   0  0  0  0  0  0  0  0  0  0  0  0
   -5.7296    5.7685    0.0000 C   0  0  0  0  0  0  0  0  0  0  0  0
   -6.9431    6.6502    0.0000 C   0  0  0  0  0  0  0  0  0  0  0  0
   -6.7863    8.1420    0.0000 C   0  0  0  0  0  0  0  0  0  0  0  0
   -7.9999    9.0236    0.0000 C   0  0  0  0  0  0  0  0  0  0  0  0
   -9.3702    8.4135    0.0000 C   0  0  0  0  0  0  0  0  0  0  0  0
   -9.5270    6.9217    0.0000 C   0  0  0  0  0  0  0  0  0  0  0  0
   -8.3134    6.0401    0.0000 N   0  0  0  0  0  0  0  0  0  0  0  0
   -5.8864    4.2767    0.0000 C   0  0  0  0  0  0  0  0  0  0  0  0
   -4.6729    3.3950    0.0000 C   0  0  0  0  0  0  0  0  0  0  0  0
   -4.4598    4.7402    0.0000 C   0  0  0  0  0  0  0  0  0  0  0  0
   -4.3030    6.2320    0.0000 C   0  0  0  0  0  0  0  0  0  0  0  0
   -5.5165    7.1137    0.0000 C   0  0  0  0  0  0  0  0  0  0  0  0
   -6.8869    6.5036    0.0000 C   0  0  0  0  0  0  0  0  0  0  0  0
   -7.0436    5.0118    0.0000 C   0  0  0  0  0  0  0  0  0  0  0  0
   -5.8301    4.1301    0.0000 C   0  0  0  0  0  0  0  0  0  0  0  0
   -5.6733    5.6219    0.0000 C   0  0  0  0  0  0  0  0  0  0  0  0
   -4.4598    4.7402    0.0000 C   0  0  0  0  0  0  0  0  0  0  0  0
   -3.2778    5.6638    0.0000 O   0  0  0  0  0  0  0  0  0  0  0  0
   -4.6166    3.2485    0.0000 N   0  0  0  0  0  0  0  0  0  0  0  0
   -3.4031    2.3668    0.0000 C   0  0  0  0  0  0  0  0  0  0  0  0
   -3.5599    0.8750    0.0000 C   0  0  0  0  0  0  0  0  0  0  0  0
   -2.3463   -0.0067    0.0000 C   0  0  0  0  0  0  0  0  0  0  0  0
   -2.5031   -1.4985    0.0000 C   0  0  0  0  0  0  0  0  0  0  0  0
   -1.2896   -2.3801    0.0000 C   0  0  0  0  0  0  0  0  0  0  0  0
    0.0807   -1.7700    0.0000 C   0  0  0  0  0  0  0  0  0  0  0  0
    0.2375   -0.2783    0.0000 C   0  0  0  0  0  0  0  0  0  0  0  0
   -0.9760    0.6034    0.0000 C   0  0  0  0  0  0  0  0  0  0  0  0
   -2.0328    2.9769    0.0000 C   0  0  0  0  0  0  0  0  0  0  0  0
   -1.6953    4.4384    0.0000 O   0  0  0  0  0  0  0  0  0  0  0  0
   -0.6419    2.4150    0.0000 O   0  0  0  0  0  0  0  0  0  0  0  0
  1  2  2  0
  2  3  1  0
  3  4  1  0
  4  5  1  0
  5  6  1  0
  6  7  1  0
  7  8  1  0
  8  9  1  0
  9 10  1  0
  9 11  1  0
 11 12  1  0
 12 13  1  0
 13 14  1  0
 14 15  2  0
 15 16  1  0
 16 17  2  0
 17 18  1  0
 18 19  2  0
 19 20  1  0
 20 21  2  0
 21 22  1  0
 22 23  2  0
 17 24  1  0
 24 25  2  0
  2 26  1  0
 26 27  1  0
 27 28  1  0
 28 29  1  0
 29 30  1  0
 30 31  1  0
 30 32  1  0
 32 33  1  0
 33 34  2  0
 33 35  1  0
 35 36  1  0
 36 37  1  0
 37 38  1  0
 38 39  2  0
 39 40  1  0
 40 41  2  0
 41 42  1  0
 42 43  2  0
 36 44  1  0
 44 45  2  0
 44 46  1  0
 10  4  1  0
 25 14  1  0
 31 26  1  0
 43 38  1  0
 11  6  1  0
 23 18  1  0
 32 28  1  0
M  END
>  <Title>  (117) 
idAAEMgen7

$$$$

     RDKit          2D

 37 39  0  0  0  0  0  0  0  0999 V2000
    5.2500   -2.7990    0.0000 C   0  0  0  0  0  0  0  0  0  0  0  0
    5.2500   -1.2990    0.0000 C   0  0  0  0  0  0  0  0  0  0  0  0
    5.2500    0.2010    0.0000 C   0  0  0  0  0  0  0  0  0  0  0  0
    6.7500   -1.2990    0.0000 C   0  0  0  0  0  0  0  0  0  0  0  0
    3.7500   -1.2990    0.0000 O   0  0  0  0  0  0  0  0  0  0  0  0
    3.0000    0.0000    0.0000 C   0  0  0  0  0  0  0  0  0  0  0  0
    3.7500    1.2990    0.0000 O   0  0  0  0  0  0  0  0  0  0  0  0
    1.5000    0.0000    0.0000 N   0  0  0  0  0  0  0  0  0  0  0  0
    0.7500   -1.2990    0.0000 C   0  0  0  0  0  0  0  0  0  0  0  0
   -0.7500   -1.2990    0.0000 C   0  0  0  0  0  0  0  0  0  0  0  0
   -1.5000    0.0000    0.0000 N   0  0  0  0  0  0  0  0  0  0  0  0
   -3.0000    0.0000    0.0000 C   0  0  0  0  0  0  0  0  0  0  0  0
   -3.7500   -1.2990    0.0000 O   0  0  0  0  0  0  0  0  0  0  0  0
   -3.7500    1.2990    0.0000 C   0  0  0  0  0  0  0  0  0  0  0  0
   -5.2500    1.2990    0.0000 C   0  0  0  0  0  0  0  0  0  0  0  0
   -6.0000    0.0000    0.0000 C   0  0  0  0  0  0  0  0  0  0  0  0
   -5.2500   -1.2990    0.0000 C   0  0  0  0  0  0  0  0  0  0  0  0
   -6.0000   -2.5981    0.0000 C   0  0  0  0  0  0  0  0  0  0  0  0
   -7.5000   -2.5981    0.0000 C   0  0  0  0  0  0  0  0  0  0  0  0
   -8.2500   -1.2990    0.0000 C   0  0  0  0  0  0  0  0  0  0  0  0
   -7.5000   -0.0000    0.0000 C   0  0  0  0  0  0  0  0  0  0  0  0
   -3.0000    2.5981    0.0000 N   0  0  0  0  0  0  0  0  0  0  0  0
   -3.7500    3.8971    0.0000 C   0  0  0  0  0  0  0  0  0  0  0  0
   -5.2500    3.8971    0.0000 O   0  0  0  0  0  0  0  0  0  0  0  0
   -3.0000    5.1962    0.0000 C   0  0  0  0  0  0  0  0  0  0  0  0
   -3.7500    6.4952    0.0000 C   0  0  0  0  0  0  0  0  0  0  0  0
   -3.0000    7.7942    0.0000 C   0  0  0  0  0  0  0  0  0  0  0  0
   -1.5000    7.7942    0.0000 C   0  0  0  0  0  0  0  0  0  0  0  0
   -0.7500    9.0933    0.0000 C   0  0  0  0  0  0  0  0  0  0  0  0
   -1.5000   10.3923    0.0000 C   0  0  0  0  0  0  0  0  0  0  0  0
   -3.0000   10.3923    0.0000 C   0  0  0  0  0  0  0  0  0  0  0  0
   -3.7500    9.0933    0.0000 C   0  0  0  0  0  0  0  0  0  0  0  0
   -1.5000    5.1962    0.0000 C   0  0  0  0  0  0  0  0  0  0  0  0
   -0.7500    3.8971    0.0000 O   0  0  0  0  0  0  0  0  0  0  0  0
   -0.7500    6.4952    0.0000 O   0  0  0  0  0  0  0  0  0  0  0  0
   -0.7500    1.2990    0.0000 C   0  0  0  0  0  0  0  0  0  0  0  0
    0.7500    1.2990    0.0000 C   0  0  0  0  0  0  0  0  0  0  0  0
  1  2  1  0
  2  3  1  0
  2  4  1  0
  2  5  1  0
  5  6  1  0
  6  7  2  0
  6  8  1  0
  8  9  1  0
  9 10  1  0
 10 11  1  0
 11 12  1  0
 12 13  2  0
 12 14  1  0
 14 15  1  0
 15 16  1  0
 16 17  2  0
 17 18  1  0
 18 19  2  0
 19 20  1  0
 20 21  2  0
 14 22  1  0
 22 23  1  0
 23 24  2  0
 23 25  1  0
 25 26  1  0
 26 27  1  0
 27 28  2  0
 28 29  1  0
 29 30  2  0
 30 31  1  0
 31 32  2  0
 25 33  1  0
 33 34  2  0
 33 35  1  0
 11 36  1  0
 36 37  1  0
 37  8  1  0
 21 16  1  0
 32 27  1  0
M  END
>  <Title>  (118) 
idAAENgen7

$$$$

     RDKit          2D

 35 39  0  0  0  0  0  0  0  0999 V2000
   -0.7500   -3.8971    0.0000 O   0  0  0  0  0  0  0  0  0  0  0  0
    0.7500   -3.8971    0.0000 C   0  0  0  0  0  0  0  0  0  0  0  0
    1.5000   -5.1962    0.0000 N   0  0  0  0  0  0  0  0  0  0  0  0
    0.7500   -6.4952    0.0000 C   0  0  0  0  0  0  0  0  0  0  0  0
    1.5000   -7.7942    0.0000 C   0  0  0  0  0  0  0  0  0  0  0  0
    2.9095   -7.2812    0.0000 C   0  0  0  0  0  0  0  0  0  0  0  0
    4.0586   -8.2454    0.0000 C   0  0  0  0  0  0  0  0  0  0  0  0
    5.4681   -7.7323    0.0000 C   0  0  0  0  0  0  0  0  0  0  0  0
    5.7286   -6.2551    0.0000 C   0  0  0  0  0  0  0  0  0  0  0  0
    4.5796   -5.2910    0.0000 C   0  0  0  0  0  0  0  0  0  0  0  0
    3.1700   -5.8040    0.0000 C   0  0  0  0  0  0  0  0  0  0  0  0
    1.7605   -9.2714    0.0000 C   0  0  0  0  0  0  0  0  0  0  0  0
    0.3509   -8.7584    0.0000 C   0  0  0  0  0  0  0  0  0  0  0  0
    1.5000   -2.5981    0.0000 N   0  0  0  0  0  0  0  0  0  0  0  0
    0.7500   -1.2990    0.0000 C   0  0  0  0  0  0  0  0  0  0  0  0
    1.5000    0.0000    0.0000 C   0  0  0  0  0  0  0  0  0  0  0  0
    0.7500    1.2990    0.0000 C   0  0  0  0  0  0  0  0  0  0  0  0
   -0.7500    1.2990    0.0000 C   0  0  0  0  0  0  0  0  0  0  0  0
   -1.5000    0.0000    0.0000 C   0  0  0  0  0  0  0  0  0  0  0  0
   -0.7500   -1.2990    0.0000 C   0  0  0  0  0  0  0  0  0  0  0  0
   -0.0000   -0.0000    0.0000 C   0  0  0  0  0  0  0  0  0  0  0  0
    0.7500   -1.2990    0.0000 C   0  0  0  0  0  0  0  0  0  0  0  0
    2.2500   -1.2990    0.0000 O   0  0  0  0  0  0  0  0  0  0  0  0
   -0.0000   -2.5981    0.0000 N   0  0  0  0  0  0  0  0  0  0  0  0
    0.7500   -3.8971    0.0000 C   0  0  0  0  0  0  0  0  0  0  0  0
   -0.0000   -5.1962    0.0000 C   0  0  0  0  0  0  0  0  0  0  0  0
    0.7500   -6.4952    0.0000 C   0  0  0  0  0  0  0  0  0  0  0  0
   -0.0000   -7.7942    0.0000 C   0  0  0  0  0  0  0  0  0  0  0  0
    0.7500   -9.0933    0.0000 C   0  0  0  0  0  0  0  0  0  0  0  0
    2.2500   -9.0933    0.0000 C   0  0  0  0  0  0  0  0  0  0  0  0
    3.0000   -7.7942    0.0000 C   0  0  0  0  0  0  0  0  0  0  0  0
    2.2500   -6.4952    0.0000 C   0  0  0  0  0  0  0  0  0  0  0  0
    2.2500   -3.8971    0.0000 C   0  0  0  0  0  0  0  0  0  0  0  0
    3.0000   -2.5981    0.0000 O   0  0  0  0  0  0  0  0  0  0  0  0
    3.2920   -4.9761    0.0000 O   0  0  0  0  0  0  0  0  0  0  0  0
  1  2  2  0
  2  3  1  0
  3  4  1  0
  4  5  1  0
  5  6  1  0
  6  7  2  0
  7  8  1  0
  8  9  2  0
  9 10  1  0
 10 11  2  0
  5 12  1  0
 12 13  1  0
  2 14  1  0
 14 15  1  0
 15 16  1  0
 16 17  1  0
 17 18  1  0
 18 19  1  0
 19 20  1  0
 19 21  1  0
 21 22  1  0
 22 23  2  0
 22 24  1  0
 24 25  1  0
 25 26  1  0
 26 27  1  0
 27 28  2  0
 28 29  1  0
 29 30  2  0
 30 31  1  0
 31 32  2  0
 25 33  1  0
 33 34  2  0
 33 35  1  0
 13  5  1  0
 20 15  1  0
 32 27  1  0
 11  6  1  0
 21 17  1  0
M  END
>  <Title>  (119) 
idAAEOgen7

$$$$

     RDKit          2D

 57 63  0  0  0  0  0  0  0  0999 V2000
   -0.7500   -3.8971    0.0000 O   0  0  0  0  0  0  0  0  0  0  0  0
    0.7500   -3.8971    0.0000 C   0  0  0  0  0  0  0  0  0  0  0  0
    1.5000   -5.1962    0.0000 N   0  0  0  0  0  0  0  0  0  0  0  0
    0.7500   -6.4952    0.0000 C   0  0  0  0  0  0  0  0  0  0  0  0
    1.5000   -7.7942    0.0000 C   0  0  0  0  0  0  0  0  0  0  0  0
    2.9095   -7.2812    0.0000 C   0  0  0  0  0  0  0  0  0  0  0  0
    4.0586   -8.2454    0.0000 C   0  0  0  0  0  0  0  0  0  0  0  0
    5.4681   -7.7323    0.0000 C   0  0  0  0  0  0  0  0  0  0  0  0
    5.7286   -6.2551    0.0000 C   0  0  0  0  0  0  0  0  0  0  0  0
    4.5796   -5.2910    0.0000 C   0  0  0  0  0  0  0  0  0  0  0  0
    3.1700   -5.8040    0.0000 C   0  0  0  0  0  0  0  0  0  0  0  0
    1.7605   -9.2714    0.0000 C   0  0  0  0  0  0  0  0  0  0  0  0
    0.3509   -8.7584    0.0000 C   0  0  0  0  0  0  0  0  0  0  0  0
    1.5000   -2.5981    0.0000 N   0  0  0  0  0  0  0  0  0  0  0  0
    0.7500   -1.2990    0.0000 C   0  0  0  0  0  0  0  0  0  0  0  0
    1.5000    0.0000    0.0000 C   0  0  0  0  0  0  0  0  0  0  0  0
    0.7500    1.2990    0.0000 C   0  0  0  0  0  0  0  0  0  0  0  0
   -0.7500    1.2990    0.0000 C   0  0  0  0  0  0  0  0  0  0  0  0
   -1.5000    0.0000    0.0000 C   0  0  0  0  0  0  0  0  0  0  0  0
   -0.7500   -1.2990    0.0000 C   0  0  0  0  0  0  0  0  0  0  0  0
   -0.0000   -0.0000    0.0000 C   0  0  0  0  0  0  0  0  0  0  0  0
    0.7500   -1.2990    0.0000 C   0  0  0  0  0  0  0  0  0  0  0  0
    2.2500   -1.2990    0.0000 O   0  0  0  0  0  0  0  0  0  0  0  0
   -0.0000   -2.5981    0.0000 N   0  0  0  0  0  0  0  0  0  0  0  0
    0.7500   -3.8971    0.0000 C   0  0  0  0  0  0  0  0  0  0  0  0
   -0.0000   -5.1962    0.0000 C   0  0  0  0  0  0  0  0  0  0  0  0
    0.7500   -6.4952    0.0000 C   0  0  0  0  0  0  0  0  0  0  0  0
   -0.0000   -7.7942    0.0000 C   0  0  0  0  0  0  0  0  0  0  0  0
    0.7500   -9.0933    0.0000 C   0  0  0  0  0  0  0  0  0  0  0  0
    2.2500   -9.0933    0.0000 C   0  0  0  0  0  0  0  0  0  0  0  0
    3.0000   -7.7942    0.0000 C   0  0  0  0  0  0  0  0  0  0  0  0
    2.2500   -6.4952    0.0000 C   0  0  0  0  0  0  0  0  0  0  0  0
    2.2500   -3.8971    0.0000 C   0  0  0  0  0  0  0  0  0  0  0  0
    3.0000   -2.5981    0.0000 O   0  0  0  0  0  0  0  0  0  0  0  0
    3.0000   -5.1962    0.0000 N   0  0  0  0  0  0  0  0  0  0  0  0
    4.5000   -5.1962    0.0000 C   0  0  0  0  0  0  0  0  0  0  0  0
    5.2500   -6.4952    0.0000 C   0  0  0  0  0  0  0  0  0  0  0  0
    6.7500   -6.4952    0.0000 C   0  0  0  0  0  0  0  0  0  0  0  0
    7.5000   -7.7942    0.0000 C   0  0  0  0  0  0  0  0  0  0  0  0
    9.0000   -7.7942    0.0000 C   0  0  0  0  0  0  0  0  0  0  0  0
    9.7500   -6.4952    0.0000 C   0  0  0  0  0  0  0  0  0  0  0  0
    9.0000   -5.1962    0.0000 C   0  0  0  0  0  0  0  0  0  0  0  0
    7.5000   -5.1962    0.0000 C   0  0  0  0  0  0  0  0  0  0  0  0
    5.2500   -3.8971    0.0000 C   0  0  0  0  0  0  0  0  0  0  0  0
    4.5000   -2.5981    0.0000 O   0  0  0  0  0  0  0  0  0  0  0  0
    6.7500   -3.8971    0.0000 N   0  0  0  0  0  0  0  0  0  0  0  0
    7.5000   -2.5981    0.0000 C   0  0  0  0  0  0  0  0  0  0  0  0
    9.0000   -2.5981    0.0000 C   0  0  0  0  0  0  0  0  0  0  0  0
    9.7500   -1.2990    0.0000 C   0  0  0  0  0  0  0  0  0  0  0  0
   11.2500   -1.2990    0.0000 C   0  0  0  0  0  0  0  0  0  0  0  0
   12.0000   -0.0000    0.0000 C   0  0  0  0  0  0  0  0  0  0  0  0
   11.2500    1.2990    0.0000 C   0  0  0  0  0  0  0  0  0  0  0  0
    9.7500    1.2990    0.0000 C   0  0  0  0  0  0  0  0  0  0  0  0
    9.0000   -0.0000    0.0000 C   0  0  0  0  0  0  0  0  0  0  0  0
    6.7500   -1.2990    0.0000 C   0  0  0  0  0  0  0  0  0  0  0  0
    5.2500   -1.2990    0.0000 O   0  0  0  0  0  0  0  0  0  0  0  0
    7.5000   -0.0000    0.0000 O   0  0  0  0  0  0  0  0  0  0  0  0
  1  2  2  0
  2  3  1  0
  3  4  1  0
  4  5  1  0
  5  6  1  0
  6  7  2  0
  7  8  1  0
  8  9  2  0
  9 10  1  0
 10 11  2  0
  5 12  1  0
 12 13  1  0
  2 14  1  0
 14 15  1  0
 15 16  1  0
 16 17  1  0
 17 18  1  0
 18 19  1  0
 19 20  1  0
 19 21  1  0
 21 22  1  0
 22 23  2  0
 22 24  1  0
 24 25  1  0
 25 26  1  0
 26 27  1  0
 27 28  2  0
 28 29  1  0
 29 30  2  0
 30 31  1  0
 31 32  2  0
 25 33  1  0
 33 34  2  0
 33 35  1  0
 35 36  1  0
 36 37  1  0
 37 38  1  0
 38 39  2  0
 39 40  1  0
 40 41  2  0
 41 42  1  0
 42 43  2  0
 36 44  1  0
 44 45  2  0
 44 46  1  0
 46 47  1  0
 47 48  1  0
 48 49  1  0
 49 50  2  0
 50 51  1  0
 51 52  2  0
 52 53  1  0
 53 54  2  0
 47 55  1  0
 55 56  2  0
 55 57  1  0
 13  5  1  0
 20 15  1  0
 32 27  1  0
 43 38  1  0
 54 49  1  0
 11  6  1  0
 21 17  1  0
M  END
>  <Title>  (120) 
idAAEPgen7

$$$$

     RDKit          2D

 53 58  0  0  0  0  0  0  0  0999 V2000
   -1.4033    6.9044    0.0000 C   0  0  0  0  0  0  0  0  0  0  0  0
   -2.7242    6.1936    0.0000 C   0  0  0  0  0  0  0  0  0  0  0  0
   -4.0451    5.4828    0.0000 C   0  0  0  0  0  0  0  0  0  0  0  0
   -3.4350    7.5145    0.0000 C   0  0  0  0  0  0  0  0  0  0  0  0
   -2.0134    4.8727    0.0000 N   0  0  0  0  0  0  0  0  0  0  0  0
   -2.8019    3.5967    0.0000 C   0  0  0  0  0  0  0  0  0  0  0  0
   -4.2675    3.2775    0.0000 O   0  0  0  0  0  0  0  0  0  0  0  0
   -2.0911    2.2758    0.0000 C   0  0  0  0  0  0  0  0  0  0  0  0
   -0.5926    2.3431    0.0000 C   0  0  0  0  0  0  0  0  0  0  0  0
    0.3943    1.2135    0.0000 C   0  0  0  0  0  0  0  0  0  0  0  0
    1.2760    0.0000    0.0000 C   0  0  0  0  0  0  0  0  0  0  0  0
    0.3943   -1.2135    0.0000 C   0  0  0  0  0  0  0  0  0  0  0  0
   -1.0323   -0.7500    0.0000 C   0  0  0  0  0  0  0  0  0  0  0  0
   -2.5737   -0.3836    0.0000 C   0  0  0  0  0  0  0  0  0  0  0  0
   -2.9728    1.0623    0.0000 C   0  0  0  0  0  0  0  0  0  0  0  0
   -4.4487    1.3301    0.0000 C   0  0  0  0  0  0  0  0  0  0  0  0
   -5.2813    2.5778    0.0000 O   0  0  0  0  0  0  0  0  0  0  0  0
   -5.4186    0.1859    0.0000 N   0  0  0  0  0  0  0  0  0  0  0  0
   -6.8945    0.4537    0.0000 C   0  0  0  0  0  0  0  0  0  0  0  0
   -7.8644   -0.6905    0.0000 C   0  0  0  0  0  0  0  0  0  0  0  0
   -9.3403   -0.4227    0.0000 C   0  0  0  0  0  0  0  0  0  0  0  0
   -9.8463    0.9894    0.0000 C   0  0  0  0  0  0  0  0  0  0  0  0
  -11.3221    1.2572    0.0000 C   0  0  0  0  0  0  0  0  0  0  0  0
  -12.2920    0.1130    0.0000 C   0  0  0  0  0  0  0  0  0  0  0  0
  -11.7861   -1.2991    0.0000 C   0  0  0  0  0  0  0  0  0  0  0  0
  -10.3102   -1.5669    0.0000 C   0  0  0  0  0  0  0  0  0  0  0  0
   -7.4005    1.8658    0.0000 C   0  0  0  0  0  0  0  0  0  0  0  0
   -6.4306    3.0101    0.0000 O   0  0  0  0  0  0  0  0  0  0  0  0
   -8.8764    2.1337    0.0000 O   0  0  0  0  0  0  0  0  0  0  0  0
   -1.0323    0.7500    0.0000 C   0  0  0  0  0  0  0  0  0  0  0  0
   -2.2458    1.6317    0.0000 C   0  0  0  0  0  0  0  0  0  0  0  0
   -2.0890    3.1235    0.0000 C   0  0  0  0  0  0  0  0  0  0  0  0
   -0.7187    3.7336    0.0000 O   0  0  0  0  0  0  0  0  0  0  0  0
   -3.3025    4.0051    0.0000 C   0  0  0  0  0  0  0  0  0  0  0  0
   -3.1458    5.4969    0.0000 C   0  0  0  0  0  0  0  0  0  0  0  0
   -4.3593    6.3786    0.0000 C   0  0  0  0  0  0  0  0  0  0  0  0
   -4.2025    7.8704    0.0000 C   0  0  0  0  0  0  0  0  0  0  0  0
   -5.4160    8.7521    0.0000 C   0  0  0  0  0  0  0  0  0  0  0  0
   -6.7863    8.1420    0.0000 C   0  0  0  0  0  0  0  0  0  0  0  0
   -6.9431    6.6502    0.0000 C   0  0  0  0  0  0  0  0  0  0  0  0
   -5.7296    5.7685    0.0000 C   0  0  0  0  0  0  0  0  0  0  0  0
   -4.6729    3.3950    0.0000 N   0  0  0  0  0  0  0  0  0  0  0  0
   -5.8864    4.2767    0.0000 C   0  0  0  0  0  0  0  0  0  0  0  0
   -6.0952    5.7621    0.0000 O   0  0  0  0  0  0  0  0  0  0  0  0
   -7.2567    3.6666    0.0000 O   0  0  0  0  0  0  0  0  0  0  0  0
   -8.4702    4.5483    0.0000 C   0  0  0  0  0  0  0  0  0  0  0  0
   -8.4702    6.0483    0.0000 C   0  0  0  0  0  0  0  0  0  0  0  0
   -9.8968    6.5118    0.0000 O   0  0  0  0  0  0  0  0  0  0  0  0
  -10.7785    5.2983    0.0000 C   0  0  0  0  0  0  0  0  0  0  0  0
  -12.2051    4.8348    0.0000 O   0  0  0  0  0  0  0  0  0  0  0  0
  -12.2051    3.3348    0.0000 C   0  0  0  0  0  0  0  0  0  0  0  0
  -10.7785    2.8712    0.0000 C   0  0  0  0  0  0  0  0  0  0  0  0
   -9.8968    4.0848    0.0000 C   0  0  0  0  0  0  0  0  0  0  0  0
  1  2  1  0
  2  3  1  0
  2  4  1  0
  2  5  1  0
  5  6  1  0
  6  7  2  0
  6  8  1  0
  8  9  1  0
  9 10  1  0
 10 11  1  0
 11 12  1  0
 12 13  1  0
 13 14  1  0
 14 15  1  0
 15 16  1  0
 16 17  2  0
 16 18  1  0
 18 19  1  0
 19 20  1  0
 20 21  1  0
 21 22  2  0
 22 23  1  0
 23 24  2  0
 24 25  1  0
 25 26  2  0
 19 27  1  0
 27 28  2  0
 27 29  1  0
 13 30  1  0
 30 31  1  0
 31 32  1  0
 32 33  1  0
 32 34  1  0
 34 35  1  0
 35 36  1  0
 36 37  2  0
 37 38  1  0
 38 39  2  0
 39 40  1  0
 40 41  2  0
 34 42  1  0
 42 43  1  0
 43 44  2  0
 43 45  1  0
 45 46  1  0
 46 47  1  0
 47 48  1  0
 48 49  1  0
 49 50  1  0
 50 51  1  0
 51 52  1  0
 52 53  1  0
 15  8  1  0
 26 21  1  0
 41 36  1  0
 53 46  1  0
 30 10  1  0
 53 49  1  0
M  END
>  <Title>  (121) 
idAAEQgen7

$$$$

     RDKit          2D

 67 72  0  0  0  0  0  0  0  0999 V2000
   -1.6145    7.2029    0.0000 C   0  0  0  0  0  0  0  0  0  0  0  0
   -2.7242    6.1936    0.0000 C   0  0  0  0  0  0  0  0  0  0  0  0
   -4.0451    5.4828    0.0000 C   0  0  0  0  0  0  0  0  0  0  0  0
   -3.4350    7.5145    0.0000 C   0  0  0  0  0  0  0  0  0  0  0  0
   -2.0134    4.8727    0.0000 N   0  0  0  0  0  0  0  0  0  0  0  0
   -2.8019    3.5967    0.0000 C   0  0  0  0  0  0  0  0  0  0  0  0
   -4.3012    3.6416    0.0000 O   0  0  0  0  0  0  0  0  0  0  0  0
   -2.0911    2.2758    0.0000 C   0  0  0  0  0  0  0  0  0  0  0  0
   -0.5926    2.3431    0.0000 C   0  0  0  0  0  0  0  0  0  0  0  0
    0.3943    1.2135    0.0000 C   0  0  0  0  0  0  0  0  0  0  0  0
    1.2760    0.0000    0.0000 C   0  0  0  0  0  0  0  0  0  0  0  0
    0.3943   -1.2135    0.0000 C   0  0  0  0  0  0  0  0  0  0  0  0
   -1.0323   -0.7500    0.0000 C   0  0  0  0  0  0  0  0  0  0  0  0
   -2.5737   -0.3836    0.0000 C   0  0  0  0  0  0  0  0  0  0  0  0
   -2.9728    1.0623    0.0000 C   0  0  0  0  0  0  0  0  0  0  0  0
   -4.4487    1.3301    0.0000 C   0  0  0  0  0  0  0  0  0  0  0  0
   -4.9547    2.7422    0.0000 O   0  0  0  0  0  0  0  0  0  0  0  0
   -5.4186    0.1859    0.0000 N   0  0  0  0  0  0  0  0  0  0  0  0
   -6.8945    0.4537    0.0000 C   0  0  0  0  0  0  0  0  0  0  0  0
   -7.8644   -0.6905    0.0000 C   0  0  0  0  0  0  0  0  0  0  0  0
   -9.3403   -0.4227    0.0000 C   0  0  0  0  0  0  0  0  0  0  0  0
   -9.8463    0.9894    0.0000 C   0  0  0  0  0  0  0  0  0  0  0  0
  -11.3221    1.2572    0.0000 C   0  0  0  0  0  0  0  0  0  0  0  0
  -12.2920    0.1130    0.0000 C   0  0  0  0  0  0  0  0  0  0  0  0
  -11.7861   -1.2991    0.0000 C   0  0  0  0  0  0  0  0  0  0  0  0
  -10.3102   -1.5669    0.0000 C   0  0  0  0  0  0  0  0  0  0  0  0
   -7.4005    1.8658    0.0000 C   0  0  0  0  0  0  0  0  0  0  0  0
   -6.4306    3.0101    0.0000 O   0  0  0  0  0  0  0  0  0  0  0  0
   -8.8764    2.1337    0.0000 N   0  0  0  0  0  0  0  0  0  0  0  0
   -9.3823    3.5457    0.0000 C   0  0  0  0  0  0  0  0  0  0  0  0
  -10.8582    3.8136    0.0000 C   0  0  0  0  0  0  0  0  0  0  0  0
  -11.3642    5.2256    0.0000 C   0  0  0  0  0  0  0  0  0  0  0  0
  -10.3943    6.3699    0.0000 C   0  0  0  0  0  0  0  0  0  0  0  0
  -10.9003    7.7820    0.0000 C   0  0  0  0  0  0  0  0  0  0  0  0
  -12.3762    8.0498    0.0000 C   0  0  0  0  0  0  0  0  0  0  0  0
  -13.3461    6.9056    0.0000 C   0  0  0  0  0  0  0  0  0  0  0  0
  -12.8401    5.4935    0.0000 C   0  0  0  0  0  0  0  0  0  0  0  0
   -8.4125    4.6900    0.0000 C   0  0  0  0  0  0  0  0  0  0  0  0
   -6.9366    4.4221    0.0000 O   0  0  0  0  0  0  0  0  0  0  0  0
   -8.9184    6.1021    0.0000 O   0  0  0  0  0  0  0  0  0  0  0  0
   -1.0323    0.7500    0.0000 C   0  0  0  0  0  0  0  0  0  0  0  0
   -2.2458    1.6317    0.0000 C   0  0  0  0  0  0  0  0  0  0  0  0
   -2.0890    3.1235    0.0000 C   0  0  0  0  0  0  0  0  0  0  0  0
   -0.7187    3.7336    0.0000 O   0  0  0  0  0  0  0  0  0  0  0  0
   -3.3025    4.0051    0.0000 N   0  0  0  0  0  0  0  0  0  0  0  0
   -3.1458    5.4969    0.0000 C   0  0  0  0  0  0  0  0  0  0  0  0
   -4.3593    6.3786    0.0000 C   0  0  0  0  0  0  0  0  0  0  0  0
   -4.2025    7.8704    0.0000 C   0  0  0  0  0  0  0  0  0  0  0  0
   -2.8322    8.4805    0.0000 C   0  0  0  0  0  0  0  0  0  0  0  0
   -2.6754    9.9723    0.0000 C   0  0  0  0  0  0  0  0  0  0  0  0
   -3.8889   10.8539    0.0000 C   0  0  0  0  0  0  0  0  0  0  0  0
   -5.2592   10.2438    0.0000 C   0  0  0  0  0  0  0  0  0  0  0  0
   -5.4160    8.7521    0.0000 C   0  0  0  0  0  0  0  0  0  0  0  0
   -1.7754    6.1070    0.0000 C   0  0  0  0  0  0  0  0  0  0  0  0
   -0.5619    5.2253    0.0000 O   0  0  0  0  0  0  0  0  0  0  0  0
   -1.6186    7.5988    0.0000 N   0  0  0  0  0  0  0  0  0  0  0  0
   -0.2483    8.2089    0.0000 C   0  0  0  0  0  0  0  0  0  0  0  0
   -0.0915    9.7007    0.0000 C   0  0  0  0  0  0  0  0  0  0  0  0
    1.2788   10.3108    0.0000 C   0  0  0  0  0  0  0  0  0  0  0  0
    2.4923    9.4291    0.0000 C   0  0  0  0  0  0  0  0  0  0  0  0
    3.8626   10.0392    0.0000 C   0  0  0  0  0  0  0  0  0  0  0  0
    4.0194   11.5310    0.0000 C   0  0  0  0  0  0  0  0  0  0  0  0
    2.8059   12.4127    0.0000 C   0  0  0  0  0  0  0  0  0  0  0  0
    1.4356   11.8026    0.0000 C   0  0  0  0  0  0  0  0  0  0  0  0
    0.9652    7.3272    0.0000 C   0  0  0  0  0  0  0  0  0  0  0  0
    0.8084    5.8355    0.0000 O   0  0  0  0  0  0  0  0  0  0  0  0
    2.3355    7.9373    0.0000 O   0  0  0  0  0  0  0  0  0  0  0  0
  1  2  1  0
  2  3  1  0
  2  4  1  0
  2  5  1  0
  5  6  1  0
  6  7  2  0
  6  8  1  0
  8  9  1  0
  9 10  1  0
 10 11  1  0
 11 12  1  0
 12 13  1  0
 13 14  1  0
 14 15  1  0
 15 16  1  0
 16 17  2  0
 16 18  1  0
 18 19  1  0
 19 20  1  0
 20 21  1  0
 21 22  2  0
 22 23  1  0
 23 24  2  0
 24 25  1  0
 25 26  2  0
 19 27  1  0
 27 28  2  0
 27 29  1  0
 29 30  1  0
 30 31  1  0
 31 32  1  0
 32 33  2  0
 33 34  1  0
 34 35  2  0
 35 36  1  0
 36 37  2  0
 30 38  1  0
 38 39  2  0
 38 40  1  0
 13 41  1  0
 41 42  1  0
 42 43  1  0
 43 44  2  0
 43 45  1  0
 45 46  1  0
 46 47  1  0
 47 48  1  0
 48 49  2  0
 49 50  1  0
 50 51  2  0
 51 52  1  0
 52 53  2  0
 46 54  1  0
 54 55  2  0
 54 56  1  0
 56 57  1  0
 57 58  1  0
 58 59  1  0
 59 60  2  0
 60 61  1  0
 61 62  2  0
 62 63  1  0
 63 64  2  0
 57 65  1  0
 65 66  2  0
 65 67  1  0
 15  8  1  0
 26 21  1  0
 37 32  1  0
 53 48  1  0
 64 59  1  0
 41 10  1  0
M  END
>  <Title>  (122) 
idAAERgen7

$$$$

     RDKit          2D

 47 51  0  0  0  0  0  0  0  0999 V2000
   -7.9140   11.2578    0.0000 C   0  0  0  0  0  0  0  0  0  0  0  0
   -7.9140    9.7578    0.0000 C   0  0  0  0  0  0  0  0  0  0  0  0
   -7.9140    8.2578    0.0000 C   0  0  0  0  0  0  0  0  0  0  0  0
   -9.4140    9.7578    0.0000 C   0  0  0  0  0  0  0  0  0  0  0  0
   -6.4140    9.7578    0.0000 C   0  0  0  0  0  0  0  0  0  0  0  0
   -5.6640    8.4587    0.0000 C   0  0  0  0  0  0  0  0  0  0  0  0
   -6.4140    7.1597    0.0000 N   0  0  0  0  0  0  0  0  0  0  0  0
   -5.6640    5.8606    0.0000 C   0  0  0  0  0  0  0  0  0  0  0  0
   -4.1640    5.8606    0.0000 O   0  0  0  0  0  0  0  0  0  0  0  0
   -6.4140    4.5616    0.0000 C   0  0  0  0  0  0  0  0  0  0  0  0
   -7.9140    4.5616    0.0000 C   0  0  0  0  0  0  0  0  0  0  0  0
   -8.6640    5.8606    0.0000 C   0  0  0  0  0  0  0  0  0  0  0  0
   -7.9140    7.1597    0.0000 C   0  0  0  0  0  0  0  0  0  0  0  0
   -8.6640    8.4587    0.0000 C   0  0  0  0  0  0  0  0  0  0  0  0
  -10.1640    8.4587    0.0000 C   0  0  0  0  0  0  0  0  0  0  0  0
  -10.9140    7.1597    0.0000 C   0  0  0  0  0  0  0  0  0  0  0  0
  -10.1640    5.8606    0.0000 C   0  0  0  0  0  0  0  0  0  0  0  0
   -5.6640    3.2626    0.0000 N   0  0  0  0  0  0  0  0  0  0  0  0
   -4.1640    3.2626    0.0000 C   0  0  0  0  0  0  0  0  0  0  0  0
   -3.4140    4.5616    0.0000 O   0  0  0  0  0  0  0  0  0  0  0  0
   -3.4140    1.9635    0.0000 O   0  0  0  0  0  0  0  0  0  0  0  0
   -1.9140    1.9635    0.0000 C   0  0  0  0  0  0  0  0  0  0  0  0
   -1.0323    3.1771    0.0000 C   0  0  0  0  0  0  0  0  0  0  0  0
    0.3943    2.7135    0.0000 O   0  0  0  0  0  0  0  0  0  0  0  0
    0.3943    1.2135    0.0000 C   0  0  0  0  0  0  0  0  0  0  0  0
    1.2760    0.0000    0.0000 O   0  0  0  0  0  0  0  0  0  0  0  0
    0.3943   -1.2135    0.0000 C   0  0  0  0  0  0  0  0  0  0  0  0
   -1.0323   -0.7500    0.0000 C   0  0  0  0  0  0  0  0  0  0  0  0
   -1.0323    0.7500    0.0000 C   0  0  0  0  0  0  0  0  0  0  0  0
   -4.1640    8.4587    0.0000 S   0  0  0  0  0  0  0  0  0  0  0  0
   -4.1640    9.9587    0.0000 O   0  0  0  0  0  0  0  0  0  0  0  0
   -4.1640    6.9587    0.0000 O   0  0  0  0  0  0  0  0  0  0  0  0
   -2.6640    8.4587    0.0000 C   0  0  0  0  0  0  0  0  0  0  0  0
   -1.9140    9.7578    0.0000 C   0  0  0  0  0  0  0  0  0  0  0  0
   -0.4140    9.7578    0.0000 C   0  0  0  0  0  0  0  0  0  0  0  0
    0.3360    8.4587    0.0000 C   0  0  0  0  0  0  0  0  0  0  0  0
    1.8360    8.4587    0.0000 N   0  0  0  0  0  0  0  0  0  0  0  0
    2.5860    9.7578    0.0000 C   0  0  0  0  0  0  0  0  0  0  0  0
    1.8360   11.0568    0.0000 O   0  0  0  0  0  0  0  0  0  0  0  0
    4.0860    9.7578    0.0000 C   0  0  0  0  0  0  0  0  0  0  0  0
    4.8360   11.0568    0.0000 C   0  0  0  0  0  0  0  0  0  0  0  0
    6.3360   11.0568    0.0000 C   0  0  0  0  0  0  0  0  0  0  0  0
    7.0860    9.7578    0.0000 C   0  0  0  0  0  0  0  0  0  0  0  0
    6.3360    8.4587    0.0000 C   0  0  0  0  0  0  0  0  0  0  0  0
    4.8360    8.4587    0.0000 N   0  0  0  0  0  0  0  0  0  0  0  0
   -0.4140    7.1597    0.0000 C   0  0  0  0  0  0  0  0  0  0  0  0
   -1.9140    7.1597    0.0000 C   0  0  0  0  0  0  0  0  0  0  0  0
  1  2  1  0
  2  3  1  0
  2  4  1  0
  2  5  1  0
  5  6  1  0
  6  7  1  0
  7  8  1  0
  8  9  2  0
  8 10  1  0
 10 11  1  0
 11 12  1  0
 12 13  2  0
 13 14  1  0
 14 15  2  0
 15 16  1  0
 16 17  2  0
 10 18  1  0
 18 19  1  0
 19 20  2  0
 19 21  1  0
 21 22  1  0
 22 23  1  0
 23 24  1  0
 24 25  1  0
 25 26  1  0
 26 27  1  0
 27 28  1  0
 28 29  1  0
  6 30  1  0
 30 31  2  0
 30 32  2  0
 30 33  1  0
 33 34  2  0
 34 35  1  0
 35 36  2  0
 36 37  1  0
 37 38  1  0
 38 39  2  0
 38 40  1  0
 40 41  2  0
 41 42  1  0
 42 43  2  0
 43 44  1  0
 44 45  2  0
 36 46  1  0
 46 47  2  0
 17 12  1  0
 29 22  1  0
 47 33  1  0
 29 25  1  0
 45 40  1  0
M  END
>  <Title>  (123) 
idAAESgen7

$$$$

     RDKit          2D

 65 70  0  0  0  0  0  0  0  0999 V2000
   -0.6149   13.1058    0.0000 C   0  0  0  0  0  0  0  0  0  0  0  0
   -1.9140   12.3558    0.0000 C   0  0  0  0  0  0  0  0  0  0  0  0
   -3.2130   11.6058    0.0000 C   0  0  0  0  0  0  0  0  0  0  0  0
   -2.6640   13.6549    0.0000 C   0  0  0  0  0  0  0  0  0  0  0  0
   -1.1640   11.0568    0.0000 C   0  0  0  0  0  0  0  0  0  0  0  0
   -1.9140    9.7578    0.0000 N   0  0  0  0  0  0  0  0  0  0  0  0
   -3.4140    9.7578    0.0000 C   0  0  0  0  0  0  0  0  0  0  0  0
   -4.1640    8.4587    0.0000 C   0  0  0  0  0  0  0  0  0  0  0  0
   -3.4140    7.1597    0.0000 O   0  0  0  0  0  0  0  0  0  0  0  0
   -5.6640    8.4587    0.0000 C   0  0  0  0  0  0  0  0  0  0  0  0
   -6.4140    9.7578    0.0000 C   0  0  0  0  0  0  0  0  0  0  0  0
   -5.6640   11.0568    0.0000 C   0  0  0  0  0  0  0  0  0  0  0  0
   -4.1640   11.0568    0.0000 C   0  0  0  0  0  0  0  0  0  0  0  0
   -3.4140   12.3558    0.0000 C   0  0  0  0  0  0  0  0  0  0  0  0
   -4.1640   13.6549    0.0000 C   0  0  0  0  0  0  0  0  0  0  0  0
   -5.6640   13.6549    0.0000 C   0  0  0  0  0  0  0  0  0  0  0  0
   -6.4140   12.3558    0.0000 C   0  0  0  0  0  0  0  0  0  0  0  0
   -6.4140    7.1597    0.0000 N   0  0  0  0  0  0  0  0  0  0  0  0
   -5.6640    5.8606    0.0000 C   0  0  0  0  0  0  0  0  0  0  0  0
   -4.1640    5.8606    0.0000 O   0  0  0  0  0  0  0  0  0  0  0  0
   -6.4140    4.5616    0.0000 C   0  0  0  0  0  0  0  0  0  0  0  0
   -7.9140    4.5616    0.0000 C   0  0  0  0  0  0  0  0  0  0  0  0
   -8.6640    5.8606    0.0000 C   0  0  0  0  0  0  0  0  0  0  0  0
   -7.9140    7.1597    0.0000 C   0  0  0  0  0  0  0  0  0  0  0  0
   -8.6640    8.4587    0.0000 C   0  0  0  0  0  0  0  0  0  0  0  0
  -10.1640    8.4587    0.0000 C   0  0  0  0  0  0  0  0  0  0  0  0
  -10.9140    7.1597    0.0000 C   0  0  0  0  0  0  0  0  0  0  0  0
  -10.1640    5.8606    0.0000 C   0  0  0  0  0  0  0  0  0  0  0  0
   -5.6640    3.2626    0.0000 N   0  0  0  0  0  0  0  0  0  0  0  0
   -4.1640    3.2626    0.0000 C   0  0  0  0  0  0  0  0  0  0  0  0
   -3.4140    4.5616    0.0000 O   0  0  0  0  0  0  0  0  0  0  0  0
   -3.4140    1.9635    0.0000 O   0  0  0  0  0  0  0  0  0  0  0  0
   -1.9140    1.9635    0.0000 C   0  0  0  0  0  0  0  0  0  0  0  0
   -1.0323    3.1771    0.0000 C   0  0  0  0  0  0  0  0  0  0  0  0
    0.3943    2.7135    0.0000 O   0  0  0  0  0  0  0  0  0  0  0  0
    0.3943    1.2135    0.0000 C   0  0  0  0  0  0  0  0  0  0  0  0
    1.2760    0.0000    0.0000 O   0  0  0  0  0  0  0  0  0  0  0  0
    0.3943   -1.2135    0.0000 C   0  0  0  0  0  0  0  0  0  0  0  0
   -1.0323   -0.7500    0.0000 C   0  0  0  0  0  0  0  0  0  0  0  0
   -1.0323    0.7500    0.0000 C   0  0  0  0  0  0  0  0  0  0  0  0
   -1.1640    8.4587    0.0000 S   0  0  0  0  0  0  0  0  0  0  0  0
   -2.4630    7.7087    0.0000 O   0  0  0  0  0  0  0  0  0  0  0  0
    0.1351    9.2087    0.0000 O   0  0  0  0  0  0  0  0  0  0  0  0
   -0.4140    7.1597    0.0000 C   0  0  0  0  0  0  0  0  0  0  0  0
   -1.1640    5.8606    0.0000 C   0  0  0  0  0  0  0  0  0  0  0  0
   -0.4140    4.5616    0.0000 C   0  0  0  0  0  0  0  0  0  0  0  0
    1.0860    4.5616    0.0000 C   0  0  0  0  0  0  0  0  0  0  0  0
    1.8360    3.2626    0.0000 N   0  0  0  0  0  0  0  0  0  0  0  0
    3.3360    3.2626    0.0000 C   0  0  0  0  0  0  0  0  0  0  0  0
    4.0860    4.5616    0.0000 O   0  0  0  0  0  0  0  0  0  0  0  0
    4.0860    1.9635    0.0000 C   0  0  0  0  0  0  0  0  0  0  0  0
    3.3360    0.6645    0.0000 O   0  0  0  0  0  0  0  0  0  0  0  0
    5.5860    1.9635    0.0000 C   0  0  0  0  0  0  0  0  0  0  0  0
    6.3360    0.6645    0.0000 C   0  0  0  0  0  0  0  0  0  0  0  0
    7.8360    0.6645    0.0000 C   0  0  0  0  0  0  0  0  0  0  0  0
    8.5860   -0.6346    0.0000 C   0  0  0  0  0  0  0  0  0  0  0  0
   10.0860   -0.6346    0.0000 C   0  0  0  0  0  0  0  0  0  0  0  0
   10.8360    0.6645    0.0000 C   0  0  0  0  0  0  0  0  0  0  0  0
   10.0860    1.9635    0.0000 C   0  0  0  0  0  0  0  0  0  0  0  0
    8.5860    1.9635    0.0000 C   0  0  0  0  0  0  0  0  0  0  0  0
    6.3360    3.2626    0.0000 C   0  0  0  0  0  0  0  0  0  0  0  0
    5.5860    4.5616    0.0000 O   0  0  0  0  0  0  0  0  0  0  0  0
    7.8360    3.2626    0.0000 O   0  0  0  0  0  0  0  0  0  0  0  0
    1.8360    5.8606    0.0000 C   0  0  0  0  0  0  0  0  0  0  0  0
    1.0860    7.1597    0.0000 C   0  0  0  0  0  0  0  0  0  0  0  0
  1  2  1  0
  2  3  1  0
  2  4  1  0
  2  5  1  0
  5  6  1  0
  6  7  1  0
  7  8  1  0
  8  9  1  0
  8 10  1  0
 10 11  1  0
 11 12  1  0
 12 13  2  0
 13 14  1  0
 14 15  2  0
 15 16  1  0
 16 17  2  0
 10 18  1  0
 18 19  1  0
 19 20  2  0
 19 21  1  0
 21 22  1  0
 22 23  1  0
 23 24  2  0
 24 25  1  0
 25 26  2  0
 26 27  1  0
 27 28  2  0
 21 29  1  0
 29 30  1  0
 30 31  2  0
 30 32  1  0
 32 33  1  0
 33 34  1  0
 34 35  1  0
 35 36  1  0
 36 37  1  0
 37 38  1  0
 38 39  1  0
 39 40  1  0
  6 41  1  0
 41 42  2  0
 41 43  2  0
 41 44  1  0
 44 45  2  0
 45 46  1  0
 46 47  2  0
 47 48  1  0
 48 49  1  0
 49 50  2  0
 49 51  1  0
 51 52  1  0
 51 53  1  0
 53 54  1  0
 54 55  1  0
 55 56  2  0
 56 57  1  0
 57 58  2  0
 58 59  1  0
 59 60  2  0
 53 61  1  0
 61 62  2  0
 61 63  1  0
 47 64  1  0
 64 65  2  0
 17 12  1  0
 28 23  1  0
 40 33  1  0
 65 44  1  0
 40 36  1  0
 60 55  1  0
M  END
>  <Title>  (124) 
idAAETgen7

$$$$

     RDKit          2D

 54 58  0  0  0  0  0  0  0  0999 V2000
   -5.3849    0.4488    0.0000 C   0  0  0  0  0  0  0  0  0  0  0  0
   -3.9583   -0.0147    0.0000 C   0  0  0  0  0  0  0  0  0  0  0  0
   -2.5317   -0.4783    0.0000 C   0  0  0  0  0  0  0  0  0  0  0  0
   -3.4948    1.4118    0.0000 C   0  0  0  0  0  0  0  0  0  0  0  0
   -4.4218   -1.4413    0.0000 N   0  0  0  0  0  0  0  0  0  0  0  0
   -3.4182   -2.5560    0.0000 C   0  0  0  0  0  0  0  0  0  0  0  0
   -1.9509   -2.2442    0.0000 O   0  0  0  0  0  0  0  0  0  0  0  0
   -3.8817   -3.9826    0.0000 C   0  0  0  0  0  0  0  0  0  0  0  0
   -5.3083   -4.4462    0.0000 C   0  0  0  0  0  0  0  0  0  0  0  0
   -5.3083   -5.9462    0.0000 C   0  0  0  0  0  0  0  0  0  0  0  0
   -3.8817   -6.4097    0.0000 C   0  0  0  0  0  0  0  0  0  0  0  0
   -3.0000   -5.1962    0.0000 C   0  0  0  0  0  0  0  0  0  0  0  0
   -1.5000   -5.1962    0.0000 C   0  0  0  0  0  0  0  0  0  0  0  0
   -0.7500   -6.4952    0.0000 O   0  0  0  0  0  0  0  0  0  0  0  0
   -0.7500   -3.8971    0.0000 N   0  0  0  0  0  0  0  0  0  0  0  0
    0.7500   -3.8971    0.0000 C   0  0  0  0  0  0  0  0  0  0  0  0
    1.5000   -2.5981    0.0000 C   0  0  0  0  0  0  0  0  0  0  0  0
    0.7500   -1.2990    0.0000 C   0  0  0  0  0  0  0  0  0  0  0  0
    1.5000    0.0000    0.0000 C   0  0  0  0  0  0  0  0  0  0  0  0
    0.7500    1.2990    0.0000 C   0  0  0  0  0  0  0  0  0  0  0  0
   -0.7500    1.2990    0.0000 C   0  0  0  0  0  0  0  0  0  0  0  0
   -1.5000    2.5981    0.0000 C   0  0  0  0  0  0  0  0  0  0  0  0
   -0.7500    3.8971    0.0000 C   0  0  0  0  0  0  0  0  0  0  0  0
   -1.5000    5.1962    0.0000 C   0  0  0  0  0  0  0  0  0  0  0  0
   -3.0000    5.1962    0.0000 C   0  0  0  0  0  0  0  0  0  0  0  0
   -3.7500    3.8971    0.0000 C   0  0  0  0  0  0  0  0  0  0  0  0
   -3.0000    2.5981    0.0000 N   0  0  0  0  0  0  0  0  0  0  0  0
   -1.5000    0.0000    0.0000 C   0  0  0  0  0  0  0  0  0  0  0  0
   -0.7500   -1.2990    0.0000 C   0  0  0  0  0  0  0  0  0  0  0  0
    1.5000   -5.1962    0.0000 C   0  0  0  0  0  0  0  0  0  0  0  0
    3.0000   -5.1962    0.0000 O   0  0  0  0  0  0  0  0  0  0  0  0
    0.7500   -6.4952    0.0000 N   0  0  0  0  0  0  0  0  0  0  0  0
    1.5000   -7.7942    0.0000 C   0  0  0  0  0  0  0  0  0  0  0  0
    0.7500   -9.0933    0.0000 C   0  0  0  0  0  0  0  0  0  0  0  0
    1.5000  -10.3923    0.0000 C   0  0  0  0  0  0  0  0  0  0  0  0
    0.7500  -11.6913    0.0000 C   0  0  0  0  0  0  0  0  0  0  0  0
    1.5000  -12.9904    0.0000 C   0  0  0  0  0  0  0  0  0  0  0  0
    3.0000  -12.9904    0.0000 C   0  0  0  0  0  0  0  0  0  0  0  0
    3.7500  -11.6913    0.0000 C   0  0  0  0  0  0  0  0  0  0  0  0
    3.0000  -10.3923    0.0000 C   0  0  0  0  0  0  0  0  0  0  0  0
    3.0000   -7.7942    0.0000 C   0  0  0  0  0  0  0  0  0  0  0  0
    3.7500   -6.4952    0.0000 O   0  0  0  0  0  0  0  0  0  0  0  0
    3.7500   -9.0933    0.0000 N   0  0  0  0  0  0  0  0  0  0  0  0
    5.2500   -9.0933    0.0000 C   0  0  0  0  0  0  0  0  0  0  0  0
    6.0000  -10.3923    0.0000 C   0  0  0  0  0  0  0  0  0  0  0  0
    7.5000  -10.3923    0.0000 C   0  0  0  0  0  0  0  0  0  0  0  0
    8.2500  -11.6913    0.0000 C   0  0  0  0  0  0  0  0  0  0  0  0
    9.7500  -11.6913    0.0000 C   0  0  0  0  0  0  0  0  0  0  0  0
   10.5000  -10.3923    0.0000 C   0  0  0  0  0  0  0  0  0  0  0  0
    9.7500   -9.0933    0.0000 C   0  0  0  0  0  0  0  0  0  0  0  0
    8.2500   -9.0933    0.0000 C   0  0  0  0  0  0  0  0  0  0  0  0
    6.0000   -7.7942    0.0000 C   0  0  0  0  0  0  0  0  0  0  0  0
    5.2500   -6.4952    0.0000 O   0  0  0  0  0  0  0  0  0  0  0  0
    7.5000   -7.7942    0.0000 O   0  0  0  0  0  0  0  0  0  0  0  0
  1  2  1  0
  2  3  1  0
  2  4  1  0
  2  5  1  0
  5  6  1  0
  6  7  2  0
  6  8  1  0
  8  9  1  0
  9 10  1  0
 10 11  1  0
 11 12  1  0
 12 13  1  0
 13 14  2  0
 13 15  1  0
 15 16  1  0
 16 17  1  0
 17 18  1  0
 18 19  2  0
 19 20  1  0
 20 21  2  0
 21 22  1  0
 22 23  2  0
 23 24  1  0
 24 25  2  0
 25 26  1  0
 26 27  2  0
 21 28  1  0
 28 29  2  0
 16 30  1  0
 30 31  2  0
 30 32  1  0
 32 33  1  0
 33 34  1  0
 34 35  1  0
 35 36  2  0
 36 37  1  0
 37 38  2  0
 38 39  1  0
 39 40  2  0
 33 41  1  0
 41 42  2  0
 41 43  1  0
 43 44  1  0
 44 45  1  0
 45 46  1  0
 46 47  2  0
 47 48  1  0
 48 49  2  0
 49 50  1  0
 50 51  2  0
 44 52  1  0
 52 53  2  0
 52 54  1  0
 12  8  1  0
 29 18  1  0
 40 35  1  0
 51 46  1  0
 27 22  1  0
M  END
>  <Title>  (125) 
idAAEUgen7

$$$$

     RDKit          2D

 35 40  0  0  0  0  0  0  0  0999 V2000
   -4.8434    3.3705    0.0000 C   0  0  0  0  0  0  0  0  0  0  0  0
   -3.6706    2.4352    0.0000 C   0  0  0  0  0  0  0  0  0  0  0  0
   -4.8434    1.5000    0.0000 C   0  0  0  0  0  0  0  0  0  0  0  0
   -3.0198    3.7867    0.0000 C   0  0  0  0  0  0  0  0  0  0  0  0
   -1.5574    4.1205    0.0000 C   0  0  0  0  0  0  0  0  0  0  0  0
   -0.3846    3.1852    0.0000 C   0  0  0  0  0  0  0  0  0  0  0  0
   -0.3846    1.6852    0.0000 C   0  0  0  0  0  0  0  0  0  0  0  0
    0.7881    2.6205    0.0000 C   0  0  0  0  0  0  0  0  0  0  0  0
    1.0777    1.3515    0.0000 C   0  0  0  0  0  0  0  0  0  0  0  0
    2.0130    2.5242    0.0000 C   0  0  0  0  0  0  0  0  0  0  0  0
    3.4962    2.3006    0.0000 C   0  0  0  0  0  0  0  0  0  0  0  0
    4.4315    3.4734    0.0000 C   0  0  0  0  0  0  0  0  0  0  0  0
    4.0324    4.9193    0.0000 C   0  0  0  0  0  0  0  0  0  0  0  0
    5.2843    5.7457    0.0000 C   0  0  0  0  0  0  0  0  0  0  0  0
    6.4570    4.8104    0.0000 C   0  0  0  0  0  0  0  0  0  0  0  0
    5.9300    3.4061    0.0000 C   0  0  0  0  0  0  0  0  0  0  0  0
    1.7286    0.0000    0.0000 C   0  0  0  0  0  0  0  0  0  0  0  0
    1.0777   -1.3515    0.0000 C   0  0  0  0  0  0  0  0  0  0  0  0
   -0.3846   -1.6852    0.0000 O   0  0  0  0  0  0  0  0  0  0  0  0
   -1.5574   -0.7500    0.0000 C   0  0  0  0  0  0  0  0  0  0  0  0
   -1.5574    0.7500    0.0000 C   0  0  0  0  0  0  0  0  0  0  0  0
   -2.7301   -0.1852    0.0000 C   0  0  0  0  0  0  0  0  0  0  0  0
   -3.0198    1.0838    0.0000 C   0  0  0  0  0  0  0  0  0  0  0  0
   -3.9550   -0.0890    0.0000 C   0  0  0  0  0  0  0  0  0  0  0  0
   -5.4383    0.1346    0.0000 C   0  0  0  0  0  0  0  0  0  0  0  0
   -6.3735   -1.0381    0.0000 C   0  0  0  0  0  0  0  0  0  0  0  0
   -7.8567   -0.8146    0.0000 C   0  0  0  0  0  0  0  0  0  0  0  0
   -8.7920   -1.9873    0.0000 C   0  0  0  0  0  0  0  0  0  0  0  0
   -8.2440   -3.3836    0.0000 C   0  0  0  0  0  0  0  0  0  0  0  0
   -6.7607   -3.6072    0.0000 C   0  0  0  0  0  0  0  0  0  0  0  0
   -7.2320   -0.3535    0.0000 C   0  0  0  0  0  0  0  0  0  0  0  0
   -8.4048    0.5817    0.0000 C   0  0  0  0  0  0  0  0  0  0  0  0
   -9.3400   -0.5910    0.0000 C   0  0  0  0  0  0  0  0  0  0  0  0
   -6.9215    0.3582    0.0000 C   0  0  0  0  0  0  0  0  0  0  0  0
   -5.8255   -2.4345    0.0000 C   0  0  0  0  0  0  0  0  0  0  0  0
  1  2  1  0
  2  3  1  0
  2  4  1  0
  4  5  1  0
  5  6  1  0
  6  7  1  0
  7  8  1  0
  7  9  1  0
  9 10  1  0
 10 11  1  0
 11 12  1  0
 12 13  1  0
 13 14  1  0
 14 15  1  0
 15 16  1  0
  9 17  1  0
 17 18  1  0
 18 19  1  0
 19 20  1  0
 20 21  1  0
 21 22  1  0
 21 23  1  0
 23 24  1  0
 24 25  1  0
 25 26  1  0
 26 27  1  0
 27 28  1  0
 28 29  1  0
 29 30  1  0
 30 31  1  0
 31 32  1  0
 32 33  1  0
 32 34  1  0
 30 35  1  0
 23  2  1  0
 34 26  1  0
 21  7  1  0
 35 26  1  0
 16 12  1  0
 33 28  1  0
M  END
>  <Title>  (126) 
idAAEVgen7

$$$$

     RDKit          2D

 41 47  0  0  0  0  0  0  0  0999 V2000
   -1.8760    4.4687    0.0000 O   0  0  0  0  0  0  0  0  0  0  0  0
   -3.2463    3.8586    0.0000 C   0  0  0  0  0  0  0  0  0  0  0  0
   -3.4031    2.3668    0.0000 N   0  0  0  0  0  0  0  0  0  0  0  0
   -2.1895    1.4851    0.0000 C   0  0  0  0  0  0  0  0  0  0  0  0
   -0.8192    2.0952    0.0000 C   0  0  0  0  0  0  0  0  0  0  0  0
    0.3943    1.2135    0.0000 C   0  0  0  0  0  0  0  0  0  0  0  0
    1.2760    0.0000    0.0000 C   0  0  0  0  0  0  0  0  0  0  0  0
    0.3943   -1.2135    0.0000 C   0  0  0  0  0  0  0  0  0  0  0  0
   -1.0323   -0.7500    0.0000 C   0  0  0  0  0  0  0  0  0  0  0  0
   -2.3463   -0.0067    0.0000 C   0  0  0  0  0  0  0  0  0  0  0  0
   -1.0323    0.7500    0.0000 N   0  0  0  0  0  0  0  0  0  0  0  0
   -2.2458    1.6317    0.0000 C   0  0  0  0  0  0  0  0  0  0  0  0
   -2.0890    3.1235    0.0000 C   0  0  0  0  0  0  0  0  0  0  0  0
   -3.3025    4.0051    0.0000 C   0  0  0  0  0  0  0  0  0  0  0  0
   -3.1458    5.4969    0.0000 C   0  0  0  0  0  0  0  0  0  0  0  0
   -4.3593    6.3786    0.0000 C   0  0  0  0  0  0  0  0  0  0  0  0
   -5.7296    5.7685    0.0000 C   0  0  0  0  0  0  0  0  0  0  0  0
   -5.8864    4.2767    0.0000 C   0  0  0  0  0  0  0  0  0  0  0  0
   -4.6729    3.3950    0.0000 C   0  0  0  0  0  0  0  0  0  0  0  0
   -4.4598    4.7402    0.0000 C   0  0  0  0  0  0  0  0  0  0  0  0
   -4.3030    6.2320    0.0000 C   0  0  0  0  0  0  0  0  0  0  0  0
   -5.5165    7.1137    0.0000 C   0  0  0  0  0  0  0  0  0  0  0  0
   -6.9431    7.5772    0.0000 C   0  0  0  0  0  0  0  0  0  0  0  0
   -7.8248    6.3637    0.0000 C   0  0  0  0  0  0  0  0  0  0  0  0
   -6.9431    5.1502    0.0000 C   0  0  0  0  0  0  0  0  0  0  0  0
   -5.8301    4.1301    0.0000 C   0  0  0  0  0  0  0  0  0  0  0  0
   -5.5165    5.6137    0.0000 N   0  0  0  0  0  0  0  0  0  0  0  0
   -4.3030    4.7320    0.0000 C   0  0  0  0  0  0  0  0  0  0  0  0
   -4.4598    3.2402    0.0000 C   0  0  0  0  0  0  0  0  0  0  0  0
   -3.2463    2.3586    0.0000 C   0  0  0  0  0  0  0  0  0  0  0  0
   -3.4031    0.8668    0.0000 C   0  0  0  0  0  0  0  0  0  0  0  0
   -2.1895   -0.0149    0.0000 C   0  0  0  0  0  0  0  0  0  0  0  0
   -0.8192    0.5952    0.0000 C   0  0  0  0  0  0  0  0  0  0  0  0
    0.3943   -0.2865    0.0000 C   0  0  0  0  0  0  0  0  0  0  0  0
    0.2375   -1.7783    0.0000 C   0  0  0  0  0  0  0  0  0  0  0  0
    1.4510   -2.6599    0.0000 C   0  0  0  0  0  0  0  0  0  0  0  0
    2.8213   -2.0498    0.0000 C   0  0  0  0  0  0  0  0  0  0  0  0
    2.9781   -0.5580    0.0000 C   0  0  0  0  0  0  0  0  0  0  0  0
    1.7646    0.3236    0.0000 N   0  0  0  0  0  0  0  0  0  0  0  0
   -0.6624    2.0870    0.0000 C   0  0  0  0  0  0  0  0  0  0  0  0
   -1.8760    2.9687    0.0000 C   0  0  0  0  0  0  0  0  0  0  0  0
  1  2  2  0
  2  3  1  0
  3  4  1  0
  4  5  1  0
  5  6  1  0
  6  7  1  0
  7  8  1  0
  8  9  1  0
  9 10  1  0
  9 11  1  0
 11 12  1  0
 12 13  1  0
 13 14  1  0
 14 15  2  0
 15 16  1  0
 16 17  2  0
 17 18  1  0
 18 19  2  0
  2 20  1  0
 20 21  1  0
 21 22  1  0
 22 23  1  0
 23 24  1  0
 24 25  1  0
 25 26  1  0
 25 27  1  0
 27 28  1  0
 28 29  1  0
 29 30  1  0
 30 31  2  0
 31 32  1  0
 32 33  2  0
 33 34  1  0
 34 35  2  0
 35 36  1  0
 36 37  2  0
 37 38  1  0
 38 39  2  0
 33 40  1  0
 40 41  2  0
 10  4  1  0
 19 14  1  0
 26 20  1  0
 41 30  1  0
 11  6  1  0
 27 22  1  0
 39 34  1  0
M  END
>  <Title>  (127) 
idAAEWgen7

$$$$

     RDKit          2D

 48 51  0  0  0  0  0  0  0  0999 V2000
   -5.3849    0.4488    0.0000 C   0  0  0  0  0  0  0  0  0  0  0  0
   -3.9583   -0.0147    0.0000 C   0  0  0  0  0  0  0  0  0  0  0  0
   -2.5317   -0.4783    0.0000 C   0  0  0  0  0  0  0  0  0  0  0  0
   -3.4948    1.4118    0.0000 C   0  0  0  0  0  0  0  0  0  0  0  0
   -4.4218   -1.4413    0.0000 N   0  0  0  0  0  0  0  0  0  0  0  0
   -3.4182   -2.5560    0.0000 C   0  0  0  0  0  0  0  0  0  0  0  0
   -1.9509   -2.2442    0.0000 O   0  0  0  0  0  0  0  0  0  0  0  0
   -3.8817   -3.9826    0.0000 C   0  0  0  0  0  0  0  0  0  0  0  0
   -5.3083   -4.4462    0.0000 C   0  0  0  0  0  0  0  0  0  0  0  0
   -5.3083   -5.9462    0.0000 C   0  0  0  0  0  0  0  0  0  0  0  0
   -3.8817   -6.4097    0.0000 C   0  0  0  0  0  0  0  0  0  0  0  0
   -3.0000   -5.1962    0.0000 C   0  0  0  0  0  0  0  0  0  0  0  0
   -1.5000   -5.1962    0.0000 C   0  0  0  0  0  0  0  0  0  0  0  0
   -0.7500   -6.4952    0.0000 O   0  0  0  0  0  0  0  0  0  0  0  0
   -0.7500   -3.8971    0.0000 N   0  0  0  0  0  0  0  0  0  0  0  0
    0.7500   -3.8971    0.0000 C   0  0  0  0  0  0  0  0  0  0  0  0
    1.5000   -2.5981    0.0000 C   0  0  0  0  0  0  0  0  0  0  0  0
    0.7500   -1.2990    0.0000 C   0  0  0  0  0  0  0  0  0  0  0  0
    1.5000    0.0000    0.0000 C   0  0  0  0  0  0  0  0  0  0  0  0
    0.7500    1.2990    0.0000 C   0  0  0  0  0  0  0  0  0  0  0  0
   -0.7500    1.2990    0.0000 C   0  0  0  0  0  0  0  0  0  0  0  0
   -1.5000    0.0000    0.0000 C   0  0  0  0  0  0  0  0  0  0  0  0
   -0.7500   -1.2990    0.0000 C   0  0  0  0  0  0  0  0  0  0  0  0
    1.5000   -5.1962    0.0000 C   0  0  0  0  0  0  0  0  0  0  0  0
    3.0000   -5.1962    0.0000 O   0  0  0  0  0  0  0  0  0  0  0  0
    0.7500   -6.4952    0.0000 N   0  0  0  0  0  0  0  0  0  0  0  0
    1.5000   -7.7942    0.0000 C   0  0  0  0  0  0  0  0  0  0  0  0
    0.7500   -9.0933    0.0000 C   0  0  0  0  0  0  0  0  0  0  0  0
    1.5000  -10.3923    0.0000 C   0  0  0  0  0  0  0  0  0  0  0  0
    0.7500  -11.6913    0.0000 C   0  0  0  0  0  0  0  0  0  0  0  0
    1.5000  -12.9904    0.0000 C   0  0  0  0  0  0  0  0  0  0  0  0
    3.0000  -12.9904    0.0000 C   0  0  0  0  0  0  0  0  0  0  0  0
    3.7500  -11.6913    0.0000 C   0  0  0  0  0  0  0  0  0  0  0  0
    3.0000  -10.3923    0.0000 C   0  0  0  0  0  0  0  0  0  0  0  0
    3.0000   -7.7942    0.0000 C   0  0  0  0  0  0  0  0  0  0  0  0
    3.7500   -6.4952    0.0000 O   0  0  0  0  0  0  0  0  0  0  0  0
    3.7500   -9.0933    0.0000 N   0  0  0  0  0  0  0  0  0  0  0  0
    5.2500   -9.0933    0.0000 C   0  0  0  0  0  0  0  0  0  0  0  0
    6.0000  -10.3923    0.0000 C   0  0  0  0  0  0  0  0  0  0  0  0
    7.5000  -10.3923    0.0000 C   0  0  0  0  0  0  0  0  0  0  0  0
    8.2500  -11.6913    0.0000 C   0  0  0  0  0  0  0  0  0  0  0  0
    9.7500  -11.6913    0.0000 C   0  0  0  0  0  0  0  0  0  0  0  0
   10.5000  -10.3923    0.0000 C   0  0  0  0  0  0  0  0  0  0  0  0
    9.7500   -9.0933    0.0000 C   0  0  0  0  0  0  0  0  0  0  0  0
    8.2500   -9.0933    0.0000 C   0  0  0  0  0  0  0  0  0  0  0  0
    6.0000   -7.7942    0.0000 C   0  0  0  0  0  0  0  0  0  0  0  0
    5.2500   -6.4952    0.0000 O   0  0  0  0  0  0  0  0  0  0  0  0
    7.5000   -7.7942    0.0000 O   0  0  0  0  0  0  0  0  0  0  0  0
  1  2  1  0
  2  3  1  0
  2  4  1  0
  2  5  1  0
  5  6  1  0
  6  7  2  0
  6  8  1  0
  8  9  1  0
  9 10  1  0
 10 11  1  0
 11 12  1  0
 12 13  1  0
 13 14  2  0
 13 15  1  0
 15 16  1  0
 16 17  1  0
 17 18  1  0
 18 19  2  0
 19 20  1  0
 20 21  2  0
 21 22  1  0
 22 23  2  0
 16 24  1  0
 24 25  2  0
 24 26  1  0
 26 27  1  0
 27 28  1  0
 28 29  1  0
 29 30  2  0
 30 31  1  0
 31 32  2  0
 32 33  1  0
 33 34  2  0
 27 35  1  0
 35 36  2  0
 35 37  1  0
 37 38  1  0
 38 39  1  0
 39 40  1  0
 40 41  2  0
 41 42  1  0
 42 43  2  0
 43 44  1  0
 44 45  2  0
 38 46  1  0
 46 47  2  0
 46 48  1  0
 12  8  1  0
 23 18  1  0
 34 29  1  0
 45 40  1  0
M  END
>  <Title>  (128) 
idAAEXgen7

$$$$

     RDKit          2D

 35 40  0  0  0  0  0  0  0  0999 V2000
   -1.8760    4.4687    0.0000 O   0  0  0  0  0  0  0  0  0  0  0  0
   -3.2463    3.8586    0.0000 C   0  0  0  0  0  0  0  0  0  0  0  0
   -3.4031    2.3668    0.0000 N   0  0  0  0  0  0  0  0  0  0  0  0
   -2.1895    1.4851    0.0000 C   0  0  0  0  0  0  0  0  0  0  0  0
   -0.8192    2.0952    0.0000 C   0  0  0  0  0  0  0  0  0  0  0  0
    0.3943    1.2135    0.0000 C   0  0  0  0  0  0  0  0  0  0  0  0
    1.2760    0.0000    0.0000 C   0  0  0  0  0  0  0  0  0  0  0  0
    0.3943   -1.2135    0.0000 C   0  0  0  0  0  0  0  0  0  0  0  0
   -1.0323   -0.7500    0.0000 C   0  0  0  0  0  0  0  0  0  0  0  0
   -2.3463   -0.0067    0.0000 C   0  0  0  0  0  0  0  0  0  0  0  0
   -1.0323    0.7500    0.0000 N   0  0  0  0  0  0  0  0  0  0  0  0
   -2.2458    1.6317    0.0000 C   0  0  0  0  0  0  0  0  0  0  0  0
   -2.0890    3.1235    0.0000 C   0  0  0  0  0  0  0  0  0  0  0  0
   -3.3025    4.0051    0.0000 C   0  0  0  0  0  0  0  0  0  0  0  0
   -3.1458    5.4969    0.0000 C   0  0  0  0  0  0  0  0  0  0  0  0
   -4.3593    6.3786    0.0000 C   0  0  0  0  0  0  0  0  0  0  0  0
   -5.7296    5.7685    0.0000 C   0  0  0  0  0  0  0  0  0  0  0  0
   -6.9431    6.6502    0.0000 C   0  0  0  0  0  0  0  0  0  0  0  0
   -6.7863    8.1420    0.0000 C   0  0  0  0  0  0  0  0  0  0  0  0
   -7.9999    9.0236    0.0000 C   0  0  0  0  0  0  0  0  0  0  0  0
   -9.3702    8.4135    0.0000 C   0  0  0  0  0  0  0  0  0  0  0  0
   -9.5270    6.9217    0.0000 C   0  0  0  0  0  0  0  0  0  0  0  0
   -8.3134    6.0401    0.0000 N   0  0  0  0  0  0  0  0  0  0  0  0
   -5.8864    4.2767    0.0000 C   0  0  0  0  0  0  0  0  0  0  0  0
   -4.6729    3.3950    0.0000 C   0  0  0  0  0  0  0  0  0  0  0  0
   -4.4598    4.7402    0.0000 C   0  0  0  0  0  0  0  0  0  0  0  0
   -5.9413    4.5056    0.0000 C   0  0  0  0  0  0  0  0  0  0  0  0
   -6.1760    5.9871    0.0000 C   0  0  0  0  0  0  0  0  0  0  0  0
   -7.1200    7.1528    0.0000 C   0  0  0  0  0  0  0  0  0  0  0  0
   -6.5824    8.5532    0.0000 C   0  0  0  0  0  0  0  0  0  0  0  0
   -7.5264    9.7189    0.0000 C   0  0  0  0  0  0  0  0  0  0  0  0
   -6.9888   11.1193    0.0000 O   0  0  0  0  0  0  0  0  0  0  0  0
   -5.1009    8.7879    0.0000 C   0  0  0  0  0  0  0  0  0  0  0  0
   -4.1569    7.6221    0.0000 C   0  0  0  0  0  0  0  0  0  0  0  0
   -4.6945    6.2218    0.0000 C   0  0  0  0  0  0  0  0  0  0  0  0
  1  2  2  0
  2  3  1  0
  3  4  1  0
  4  5  1  0
  5  6  1  0
  6  7  1  0
  7  8  1  0
  8  9  1  0
  9 10  1  0
  9 11  1  0
 11 12  1  0
 12 13  1  0
 13 14  1  0
 14 15  2  0
 15 16  1  0
 16 17  2  0
 17 18  1  0
 18 19  2  0
 19 20  1  0
 20 21  2  0
 21 22  1  0
 22 23  2  0
 17 24  1  0
 24 25  2  0
  2 26  1  0
 26 27  1  0
 27 28  1  0
 28 29  1  0
 29 30  1  0
 30 31  1  0
 31 32  1  0
 30 33  1  0
 33 34  1  0
 34 35  1  0
 10  4  1  0
 25 14  1  0
 35 26  1  0
 11  6  1  0
 23 18  1  0
 35 28  1  0
M  END
>  <Title>  (129) 
idAAEYgen7

$$$$

     RDKit          2D

 30 32  0  0  0  0  0  0  0  0999 V2000
    5.4786   -2.7990    0.0000 C   0  0  0  0  0  0  0  0  0  0  0  0
    5.4786   -1.2990    0.0000 C   0  0  0  0  0  0  0  0  0  0  0  0
    5.4786    0.2010    0.0000 C   0  0  0  0  0  0  0  0  0  0  0  0
    6.9786   -1.2990    0.0000 C   0  0  0  0  0  0  0  0  0  0  0  0
    3.9786   -1.2990    0.0000 C   0  0  0  0  0  0  0  0  0  0  0  0
    3.2286   -0.0000    0.0000 C   0  0  0  0  0  0  0  0  0  0  0  0
    3.9786    1.2990    0.0000 O   0  0  0  0  0  0  0  0  0  0  0  0
    1.7286    0.0000    0.0000 N   0  0  0  0  0  0  0  0  0  0  0  0
    1.0777    1.3515    0.0000 C   0  0  0  0  0  0  0  0  0  0  0  0
   -0.3846    1.6852    0.0000 C   0  0  0  0  0  0  0  0  0  0  0  0
   -1.5574    0.7500    0.0000 C   0  0  0  0  0  0  0  0  0  0  0  0
   -1.5574   -0.7500    0.0000 C   0  0  0  0  0  0  0  0  0  0  0  0
   -2.9088   -1.4008    0.0000 C   0  0  0  0  0  0  0  0  0  0  0  0
   -3.0209   -2.8966    0.0000 O   0  0  0  0  0  0  0  0  0  0  0  0
   -4.1482   -0.5558    0.0000 N   0  0  0  0  0  0  0  0  0  0  0  0
   -5.4472   -1.3058    0.0000 C   0  0  0  0  0  0  0  0  0  0  0  0
   -6.8436   -0.7578    0.0000 C   0  0  0  0  0  0  0  0  0  0  0  0
   -7.2857    0.6755    0.0000 C   0  0  0  0  0  0  0  0  0  0  0  0
   -6.4407    1.9149    0.0000 N   0  0  0  0  0  0  0  0  0  0  0  0
   -7.1907    3.2139    0.0000 C   0  0  0  0  0  0  0  0  0  0  0  0
   -8.6907    3.2139    0.0000 O   0  0  0  0  0  0  0  0  0  0  0  0
   -6.4407    4.5130    0.0000 C   0  0  0  0  0  0  0  0  0  0  0  0
   -7.0508    5.8833    0.0000 C   0  0  0  0  0  0  0  0  0  0  0  0
   -5.9361    6.8870    0.0000 C   0  0  0  0  0  0  0  0  0  0  0  0
   -4.6371    6.1370    0.0000 C   0  0  0  0  0  0  0  0  0  0  0  0
   -4.9489    4.6698    0.0000 O   0  0  0  0  0  0  0  0  0  0  0  0
   -4.9449    2.0270    0.0000 C   0  0  0  0  0  0  0  0  0  0  0  0
   -3.9246    0.9274    0.0000 C   0  0  0  0  0  0  0  0  0  0  0  0
   -0.3846   -1.6852    0.0000 C   0  0  0  0  0  0  0  0  0  0  0  0
    1.0777   -1.3515    0.0000 C   0  0  0  0  0  0  0  0  0  0  0  0
  1  2  1  0
  2  3  1  0
  2  4  1  0
  2  5  1  0
  5  6  1  0
  6  7  2  0
  6  8  1  0
  8  9  1  0
  9 10  1  0
 10 11  1  0
 11 12  1  0
 12 13  1  0
 13 14  2  0
 13 15  1  0
 15 16  1  0
 16 17  1  0
 17 18  1  0
 18 19  1  0
 19 20  1  0
 20 21  2  0
 20 22  1  0
 22 23  2  0
 23 24  1  0
 24 25  2  0
 25 26  1  0
 19 27  1  0
 27 28  1  0
 12 29  1  0
 29 30  1  0
 30  8  1  0
 28 15  1  0
 26 22  1  0
M  END
>  <Title>  (130) 
idAAEZgen7

$$$$

     RDKit          2D

 47 52  0  0  0  0  0  0  0  0999 V2000
   -0.7500   -3.8971    0.0000 O   0  0  0  0  0  0  0  0  0  0  0  0
    0.7500   -3.8971    0.0000 C   0  0  0  0  0  0  0  0  0  0  0  0
    1.5000   -5.1962    0.0000 N   0  0  0  0  0  0  0  0  0  0  0  0
    0.7500   -6.4952    0.0000 C   0  0  0  0  0  0  0  0  0  0  0  0
    1.5000   -7.7942    0.0000 C   0  0  0  0  0  0  0  0  0  0  0  0
    2.9095   -7.2812    0.0000 C   0  0  0  0  0  0  0  0  0  0  0  0
    4.0586   -8.2454    0.0000 C   0  0  0  0  0  0  0  0  0  0  0  0
    5.4681   -7.7323    0.0000 C   0  0  0  0  0  0  0  0  0  0  0  0
    5.7286   -6.2551    0.0000 C   0  0  0  0  0  0  0  0  0  0  0  0
    4.5796   -5.2910    0.0000 C   0  0  0  0  0  0  0  0  0  0  0  0
    3.1700   -5.8040    0.0000 C   0  0  0  0  0  0  0  0  0  0  0  0
    1.7605   -9.2714    0.0000 C   0  0  0  0  0  0  0  0  0  0  0  0
    0.3509   -8.7584    0.0000 C   0  0  0  0  0  0  0  0  0  0  0  0
    1.5000   -2.5981    0.0000 N   0  0  0  0  0  0  0  0  0  0  0  0
    0.7500   -1.2990    0.0000 C   0  0  0  0  0  0  0  0  0  0  0  0
    1.5000    0.0000    0.0000 C   0  0  0  0  0  0  0  0  0  0  0  0
    0.7500    1.2990    0.0000 C   0  0  0  0  0  0  0  0  0  0  0  0
   -0.7500    1.2990    0.0000 C   0  0  0  0  0  0  0  0  0  0  0  0
   -1.5000    0.0000    0.0000 C   0  0  0  0  0  0  0  0  0  0  0  0
   -0.7500   -1.2990    0.0000 C   0  0  0  0  0  0  0  0  0  0  0  0
   -1.8119    1.4672    0.0000 C   0  0  0  0  0  0  0  0  0  0  0  0
   -3.1822    2.0773    0.0000 C   0  0  0  0  0  0  0  0  0  0  0  0
   -4.3957    1.1956    0.0000 O   0  0  0  0  0  0  0  0  0  0  0  0
   -3.3390    3.5691    0.0000 N   0  0  0  0  0  0  0  0  0  0  0  0
   -4.7093    4.1792    0.0000 C   0  0  0  0  0  0  0  0  0  0  0  0
   -4.8661    5.6710    0.0000 C   0  0  0  0  0  0  0  0  0  0  0  0
   -6.2364    6.2811    0.0000 C   0  0  0  0  0  0  0  0  0  0  0  0
   -6.3932    7.7729    0.0000 C   0  0  0  0  0  0  0  0  0  0  0  0
   -7.7635    8.3830    0.0000 C   0  0  0  0  0  0  0  0  0  0  0  0
   -8.9770    7.5013    0.0000 C   0  0  0  0  0  0  0  0  0  0  0  0
   -8.8203    6.0095    0.0000 C   0  0  0  0  0  0  0  0  0  0  0  0
   -7.4499    5.3994    0.0000 C   0  0  0  0  0  0  0  0  0  0  0  0
   -5.9228    3.2975    0.0000 C   0  0  0  0  0  0  0  0  0  0  0  0
   -5.7660    1.8058    0.0000 O   0  0  0  0  0  0  0  0  0  0  0  0
   -7.2931    3.9076    0.0000 N   0  0  0  0  0  0  0  0  0  0  0  0
   -8.5067    3.0260    0.0000 C   0  0  0  0  0  0  0  0  0  0  0  0
   -9.8770    3.6361    0.0000 C   0  0  0  0  0  0  0  0  0  0  0  0
  -11.0905    2.7544    0.0000 C   0  0  0  0  0  0  0  0  0  0  0  0
  -12.4608    3.3645    0.0000 C   0  0  0  0  0  0  0  0  0  0  0  0
  -13.6744    2.4828    0.0000 C   0  0  0  0  0  0  0  0  0  0  0  0
  -13.5176    0.9910    0.0000 C   0  0  0  0  0  0  0  0  0  0  0  0
  -12.1472    0.3809    0.0000 C   0  0  0  0  0  0  0  0  0  0  0  0
  -10.9337    1.2626    0.0000 C   0  0  0  0  0  0  0  0  0  0  0  0
   -8.3499    1.5342    0.0000 C   0  0  0  0  0  0  0  0  0  0  0  0
   -6.9796    0.9241    0.0000 O   0  0  0  0  0  0  0  0  0  0  0  0
   -9.5634    0.6525    0.0000 O   0  0  0  0  0  0  0  0  0  0  0  0
   -0.5128    2.2172    0.0000 C   0  0  0  0  0  0  0  0  0  0  0  0
  1  2  2  0
  2  3  1  0
  3  4  1  0
  4  5  1  0
  5  6  1  0
  6  7  2  0
  7  8  1  0
  8  9  2  0
  9 10  1  0
 10 11  2  0
  5 12  1  0
 12 13  1  0
  2 14  1  0
 14 15  1  0
 15 16  1  0
 16 17  1  0
 17 18  1  0
 18 19  1  0
 19 20  1  0
 19 21  1  0
 21 22  1  0
 22 23  2  0
 22 24  1  0
 24 25  1  0
 25 26  1  0
 26 27  1  0
 27 28  2  0
 28 29  1  0
 29 30  2  0
 30 31  1  0
 31 32  2  0
 25 33  1  0
 33 34  2  0
 33 35  1  0
 35 36  1  0
 36 37  1  0
 37 38  1  0
 38 39  2  0
 39 40  1  0
 40 41  2  0
 41 42  1  0
 42 43  2  0
 36 44  1  0
 44 45  2  0
 44 46  1  0
 21 47  1  0
 13  5  1  0
 20 15  1  0
 32 27  1  0
 43 38  1  0
 11  6  1  0
 47 17  1  0
M  END
>  <Title>  (131) 
idAAFAgen7

$$$$

     RDKit          2D

 64 69  0  0  0  0  0  0  0  0999 V2000
    0.1351   10.3068    0.0000 C   0  0  0  0  0  0  0  0  0  0  0  0
   -1.1640   11.0568    0.0000 C   0  0  0  0  0  0  0  0  0  0  0  0
   -2.4630   11.8068    0.0000 C   0  0  0  0  0  0  0  0  0  0  0  0
   -0.4140   12.3558    0.0000 C   0  0  0  0  0  0  0  0  0  0  0  0
   -1.9140    9.7578    0.0000 C   0  0  0  0  0  0  0  0  0  0  0  0
   -3.4140    9.7578    0.0000 N   0  0  0  0  0  0  0  0  0  0  0  0
   -4.1640    8.4587    0.0000 C   0  0  0  0  0  0  0  0  0  0  0  0
   -3.4140    7.1597    0.0000 O   0  0  0  0  0  0  0  0  0  0  0  0
   -5.6640    8.4587    0.0000 C   0  0  0  0  0  0  0  0  0  0  0  0
   -6.4140    9.7578    0.0000 C   0  0  0  0  0  0  0  0  0  0  0  0
   -5.6640   11.0568    0.0000 C   0  0  0  0  0  0  0  0  0  0  0  0
   -4.1640   11.0568    0.0000 C   0  0  0  0  0  0  0  0  0  0  0  0
   -3.4140   12.3558    0.0000 C   0  0  0  0  0  0  0  0  0  0  0  0
   -4.1640   13.6549    0.0000 C   0  0  0  0  0  0  0  0  0  0  0  0
   -5.6640   13.6549    0.0000 C   0  0  0  0  0  0  0  0  0  0  0  0
   -6.4140   12.3558    0.0000 C   0  0  0  0  0  0  0  0  0  0  0  0
   -6.4140    7.1597    0.0000 N   0  0  0  0  0  0  0  0  0  0  0  0
   -5.6640    5.8606    0.0000 C   0  0  0  0  0  0  0  0  0  0  0  0
   -4.1640    5.8606    0.0000 O   0  0  0  0  0  0  0  0  0  0  0  0
   -6.4140    4.5616    0.0000 C   0  0  0  0  0  0  0  0  0  0  0  0
   -7.9140    4.5616    0.0000 C   0  0  0  0  0  0  0  0  0  0  0  0
   -8.6640    5.8606    0.0000 C   0  0  0  0  0  0  0  0  0  0  0  0
   -7.9140    7.1597    0.0000 C   0  0  0  0  0  0  0  0  0  0  0  0
   -8.6640    8.4587    0.0000 C   0  0  0  0  0  0  0  0  0  0  0  0
  -10.1640    8.4587    0.0000 C   0  0  0  0  0  0  0  0  0  0  0  0
  -10.9140    7.1597    0.0000 C   0  0  0  0  0  0  0  0  0  0  0  0
  -10.1640    5.8606    0.0000 C   0  0  0  0  0  0  0  0  0  0  0  0
   -5.6640    3.2626    0.0000 N   0  0  0  0  0  0  0  0  0  0  0  0
   -4.1640    3.2626    0.0000 C   0  0  0  0  0  0  0  0  0  0  0  0
   -3.4140    4.5616    0.0000 O   0  0  0  0  0  0  0  0  0  0  0  0
   -3.4140    1.9635    0.0000 O   0  0  0  0  0  0  0  0  0  0  0  0
   -1.9140    1.9635    0.0000 C   0  0  0  0  0  0  0  0  0  0  0  0
   -1.0323    3.1771    0.0000 C   0  0  0  0  0  0  0  0  0  0  0  0
    0.3943    2.7135    0.0000 O   0  0  0  0  0  0  0  0  0  0  0  0
    0.3943    1.2135    0.0000 C   0  0  0  0  0  0  0  0  0  0  0  0
    1.2760    0.0000    0.0000 O   0  0  0  0  0  0  0  0  0  0  0  0
    0.3943   -1.2135    0.0000 C   0  0  0  0  0  0  0  0  0  0  0  0
   -1.0323   -0.7500    0.0000 C   0  0  0  0  0  0  0  0  0  0  0  0
   -1.0323    0.7500    0.0000 C   0  0  0  0  0  0  0  0  0  0  0  0
   -1.1640    8.4587    0.0000 S   0  0  0  0  0  0  0  0  0  0  0  0
   -2.4630    7.7087    0.0000 O   0  0  0  0  0  0  0  0  0  0  0  0
    0.1351    9.2087    0.0000 O   0  0  0  0  0  0  0  0  0  0  0  0
   -0.4140    7.1597    0.0000 C   0  0  0  0  0  0  0  0  0  0  0  0
   -1.1640    5.8606    0.0000 C   0  0  0  0  0  0  0  0  0  0  0  0
   -0.4140    4.5616    0.0000 C   0  0  0  0  0  0  0  0  0  0  0  0
    1.0860    4.5616    0.0000 C   0  0  0  0  0  0  0  0  0  0  0  0
    1.8360    3.2626    0.0000 N   0  0  0  0  0  0  0  0  0  0  0  0
    3.3360    3.2626    0.0000 C   0  0  0  0  0  0  0  0  0  0  0  0
    4.0860    4.5616    0.0000 O   0  0  0  0  0  0  0  0  0  0  0  0
    4.0860    1.9635    0.0000 C   0  0  0  0  0  0  0  0  0  0  0  0
    3.3360    0.6645    0.0000 O   0  0  0  0  0  0  0  0  0  0  0  0
    5.5860    1.9635    0.0000 C   0  0  0  0  0  0  0  0  0  0  0  0
    6.3360    0.6645    0.0000 C   0  0  0  0  0  0  0  0  0  0  0  0
    7.8360    0.6645    0.0000 C   0  0  0  0  0  0  0  0  0  0  0  0
    8.5860   -0.6346    0.0000 C   0  0  0  0  0  0  0  0  0  0  0  0
   10.0860   -0.6346    0.0000 C   0  0  0  0  0  0  0  0  0  0  0  0
   10.8360    0.6645    0.0000 C   0  0  0  0  0  0  0  0  0  0  0  0
   10.0860    1.9635    0.0000 C   0  0  0  0  0  0  0  0  0  0  0  0
    8.5860    1.9635    0.0000 C   0  0  0  0  0  0  0  0  0  0  0  0
    6.3360    3.2626    0.0000 C   0  0  0  0  0  0  0  0  0  0  0  0
    5.5860    4.5616    0.0000 O   0  0  0  0  0  0  0  0  0  0  0  0
    7.8360    3.2626    0.0000 O   0  0  0  0  0  0  0  0  0  0  0  0
    1.8360    5.8606    0.0000 C   0  0  0  0  0  0  0  0  0  0  0  0
    1.0860    7.1597    0.0000 C   0  0  0  0  0  0  0  0  0  0  0  0
  1  2  1  0
  2  3  1  0
  2  4  1  0
  2  5  1  0
  5  6  1  0
  6  7  1  0
  7  8  2  0
  7  9  1  0
  9 10  1  0
 10 11  1  0
 11 12  2  0
 12 13  1  0
 13 14  2  0
 14 15  1  0
 15 16  2  0
  9 17  1  0
 17 18  1  0
 18 19  2  0
 18 20  1  0
 20 21  1  0
 21 22  1  0
 22 23  2  0
 23 24  1  0
 24 25  2  0
 25 26  1  0
 26 27  2  0
 20 28  1  0
 28 29  1  0
 29 30  2  0
 29 31  1  0
 31 32  1  0
 32 33  1  0
 33 34  1  0
 34 35  1  0
 35 36  1  0
 36 37  1  0
 37 38  1  0
 38 39  1  0
  5 40  1  0
 40 41  2  0
 40 42  2  0
 40 43  1  0
 43 44  2  0
 44 45  1  0
 45 46  2  0
 46 47  1  0
 47 48  1  0
 48 49  2  0
 48 50  1  0
 50 51  1  0
 50 52  1  0
 52 53  1  0
 53 54  1  0
 54 55  2  0
 55 56  1  0
 56 57  2  0
 57 58  1  0
 58 59  2  0
 52 60  1  0
 60 61  2  0
 60 62  1  0
 46 63  1  0
 63 64  2  0
 16 11  1  0
 27 22  1  0
 39 32  1  0
 64 43  1  0
 39 35  1  0
 59 54  1  0
M  END
>  <Title>  (132) 
idAAFBgen7

$$$$

     RDKit          2D

 26 28  0  0  0  0  0  0  0  0999 V2000
    8.4940    0.2336    0.0000 C   0  0  0  0  0  0  0  0  0  0  0  0
    7.9460    1.6299    0.0000 O   0  0  0  0  0  0  0  0  0  0  0  0
    6.4627    1.8535    0.0000 C   0  0  0  0  0  0  0  0  0  0  0  0
    5.5275    0.6808    0.0000 C   0  0  0  0  0  0  0  0  0  0  0  0
    4.0442    0.9043    0.0000 C   0  0  0  0  0  0  0  0  0  0  0  0
    3.4962    2.3006    0.0000 C   0  0  0  0  0  0  0  0  0  0  0  0
    2.0130    2.5242    0.0000 C   0  0  0  0  0  0  0  0  0  0  0  0
    1.4650    3.9205    0.0000 O   0  0  0  0  0  0  0  0  0  0  0  0
    1.0777    1.3515    0.0000 N   0  0  0  0  0  0  0  0  0  0  0  0
    1.7286    0.0000    0.0000 C   0  0  0  0  0  0  0  0  0  0  0  0
    1.0777   -1.3515    0.0000 C   0  0  0  0  0  0  0  0  0  0  0  0
   -0.3846   -1.6852    0.0000 C   0  0  0  0  0  0  0  0  0  0  0  0
   -1.5574   -0.7500    0.0000 C   0  0  0  0  0  0  0  0  0  0  0  0
   -2.9088   -1.4008    0.0000 C   0  0  0  0  0  0  0  0  0  0  0  0
   -3.0209   -2.8966    0.0000 O   0  0  0  0  0  0  0  0  0  0  0  0
   -4.1482   -0.5558    0.0000 N   0  0  0  0  0  0  0  0  0  0  0  0
   -5.5603   -1.0618    0.0000 C   0  0  0  0  0  0  0  0  0  0  0  0
   -6.4779    0.1248    0.0000 C   0  0  0  0  0  0  0  0  0  0  0  0
   -5.6329    1.3641    0.0000 C   0  0  0  0  0  0  0  0  0  0  0  0
   -4.1931    0.9435    0.0000 C   0  0  0  0  0  0  0  0  0  0  0  0
   -1.5574    0.7500    0.0000 C   0  0  0  0  0  0  0  0  0  0  0  0
   -0.3846    1.6852    0.0000 C   0  0  0  0  0  0  0  0  0  0  0  0
    4.4315    3.4734    0.0000 C   0  0  0  0  0  0  0  0  0  0  0  0
    5.9147    3.2498    0.0000 C   0  0  0  0  0  0  0  0  0  0  0  0
    6.8499    4.4226    0.0000 O   0  0  0  0  0  0  0  0  0  0  0  0
    6.3019    5.8189    0.0000 C   0  0  0  0  0  0  0  0  0  0  0  0
  1  2  1  0
  2  3  1  0
  3  4  2  0
  4  5  1  0
  5  6  2  0
  6  7  1  0
  7  8  2  0
  7  9  1  0
  9 10  1  0
 10 11  1  0
 11 12  1  0
 12 13  1  0
 13 14  1  0
 14 15  2  0
 14 16  1  0
 16 17  1  0
 17 18  1  0
 18 19  1  0
 19 20  1  0
 13 21  1  0
 21 22  1  0
  6 23  1  0
 23 24  2  0
 24 25  1  0
 25 26  1  0
 24  3  1  0
 22  9  1  0
 20 16  1  0
M  END
>  <Title>  (133) 
idAAFCgen7

$$$$

     RDKit          2D

 56 60  0  0  0  0  0  0  0  0999 V2000
   -7.9140   11.2578    0.0000 C   0  0  0  0  0  0  0  0  0  0  0  0
   -7.9140    9.7578    0.0000 C   0  0  0  0  0  0  0  0  0  0  0  0
   -7.9140    8.2578    0.0000 C   0  0  0  0  0  0  0  0  0  0  0  0
   -9.4140    9.7578    0.0000 C   0  0  0  0  0  0  0  0  0  0  0  0
   -6.4140    9.7578    0.0000 C   0  0  0  0  0  0  0  0  0  0  0  0
   -5.6640    8.4587    0.0000 C   0  0  0  0  0  0  0  0  0  0  0  0
   -6.4140    7.1597    0.0000 N   0  0  0  0  0  0  0  0  0  0  0  0
   -5.6640    5.8606    0.0000 C   0  0  0  0  0  0  0  0  0  0  0  0
   -4.1640    5.8606    0.0000 O   0  0  0  0  0  0  0  0  0  0  0  0
   -6.4140    4.5616    0.0000 C   0  0  0  0  0  0  0  0  0  0  0  0
   -7.9140    4.5616    0.0000 C   0  0  0  0  0  0  0  0  0  0  0  0
   -8.6640    5.8606    0.0000 C   0  0  0  0  0  0  0  0  0  0  0  0
   -7.9140    7.1597    0.0000 C   0  0  0  0  0  0  0  0  0  0  0  0
   -8.6640    8.4587    0.0000 C   0  0  0  0  0  0  0  0  0  0  0  0
  -10.1640    8.4587    0.0000 C   0  0  0  0  0  0  0  0  0  0  0  0
  -10.9140    7.1597    0.0000 C   0  0  0  0  0  0  0  0  0  0  0  0
  -10.1640    5.8606    0.0000 C   0  0  0  0  0  0  0  0  0  0  0  0
   -5.6640    3.2626    0.0000 N   0  0  0  0  0  0  0  0  0  0  0  0
   -4.1640    3.2626    0.0000 C   0  0  0  0  0  0  0  0  0  0  0  0
   -3.4140    4.5616    0.0000 O   0  0  0  0  0  0  0  0  0  0  0  0
   -3.4140    1.9635    0.0000 O   0  0  0  0  0  0  0  0  0  0  0  0
   -1.9140    1.9635    0.0000 C   0  0  0  0  0  0  0  0  0  0  0  0
   -1.0323    3.1771    0.0000 C   0  0  0  0  0  0  0  0  0  0  0  0
    0.3943    2.7135    0.0000 O   0  0  0  0  0  0  0  0  0  0  0  0
    0.3943    1.2135    0.0000 C   0  0  0  0  0  0  0  0  0  0  0  0
    1.2760    0.0000    0.0000 O   0  0  0  0  0  0  0  0  0  0  0  0
    0.3943   -1.2135    0.0000 C   0  0  0  0  0  0  0  0  0  0  0  0
   -1.0323   -0.7500    0.0000 C   0  0  0  0  0  0  0  0  0  0  0  0
   -1.0323    0.7500    0.0000 C   0  0  0  0  0  0  0  0  0  0  0  0
   -4.1640    8.4587    0.0000 S   0  0  0  0  0  0  0  0  0  0  0  0
   -4.1640    9.9587    0.0000 O   0  0  0  0  0  0  0  0  0  0  0  0
   -4.1640    6.9587    0.0000 O   0  0  0  0  0  0  0  0  0  0  0  0
   -2.6640    8.4587    0.0000 C   0  0  0  0  0  0  0  0  0  0  0  0
   -1.9140    9.7578    0.0000 C   0  0  0  0  0  0  0  0  0  0  0  0
   -0.4140    9.7578    0.0000 C   0  0  0  0  0  0  0  0  0  0  0  0
    0.3360    8.4587    0.0000 C   0  0  0  0  0  0  0  0  0  0  0  0
    1.8360    8.4587    0.0000 N   0  0  0  0  0  0  0  0  0  0  0  0
    2.5860    9.7578    0.0000 C   0  0  0  0  0  0  0  0  0  0  0  0
    1.8360   11.0568    0.0000 O   0  0  0  0  0  0  0  0  0  0  0  0
    4.0860    9.7578    0.0000 C   0  0  0  0  0  0  0  0  0  0  0  0
    4.8360    8.4587    0.0000 O   0  0  0  0  0  0  0  0  0  0  0  0
    4.8360   11.0568    0.0000 C   0  0  0  0  0  0  0  0  0  0  0  0
    4.0860   12.3558    0.0000 O   0  0  0  0  0  0  0  0  0  0  0  0
    6.3360   11.0568    0.0000 C   0  0  0  0  0  0  0  0  0  0  0  0
    7.0860   12.3558    0.0000 C   0  0  0  0  0  0  0  0  0  0  0  0
    8.5860   12.3558    0.0000 C   0  0  0  0  0  0  0  0  0  0  0  0
    9.3360   13.6549    0.0000 C   0  0  0  0  0  0  0  0  0  0  0  0
   10.8360   13.6549    0.0000 C   0  0  0  0  0  0  0  0  0  0  0  0
   11.5860   12.3558    0.0000 C   0  0  0  0  0  0  0  0  0  0  0  0
   10.8360   11.0568    0.0000 C   0  0  0  0  0  0  0  0  0  0  0  0
    9.3360   11.0568    0.0000 C   0  0  0  0  0  0  0  0  0  0  0  0
    7.0860    9.7578    0.0000 C   0  0  0  0  0  0  0  0  0  0  0  0
    6.3360    8.4587    0.0000 O   0  0  0  0  0  0  0  0  0  0  0  0
    8.5860    9.7578    0.0000 O   0  0  0  0  0  0  0  0  0  0  0  0
   -0.4140    7.1597    0.0000 C   0  0  0  0  0  0  0  0  0  0  0  0
   -1.9140    7.1597    0.0000 C   0  0  0  0  0  0  0  0  0  0  0  0
  1  2  1  0
  2  3  1  0
  2  4  1  0
  2  5  1  0
  5  6  1  0
  6  7  1  0
  7  8  1  0
  8  9  2  0
  8 10  1  0
 10 11  1  0
 11 12  1  0
 12 13  2  0
 13 14  1  0
 14 15  2  0
 15 16  1  0
 16 17  2  0
 10 18  1  0
 18 19  1  0
 19 20  2  0
 19 21  1  0
 21 22  1  0
 22 23  1  0
 23 24  1  0
 24 25  1  0
 25 26  1  0
 26 27  1  0
 27 28  1  0
 28 29  1  0
  6 30  1  0
 30 31  2  0
 30 32  2  0
 30 33  1  0
 33 34  2  0
 34 35  1  0
 35 36  2  0
 36 37  1  0
 37 38  1  0
 38 39  2  0
 38 40  1  0
 40 41  1  0
 40 42  1  0
 42 43  1  0
 42 44  1  0
 44 45  1  0
 45 46  1  0
 46 47  2  0
 47 48  1  0
 48 49  2  0
 49 50  1  0
 50 51  2  0
 44 52  1  0
 52 53  2  0
 52 54  1  0
 36 55  1  0
 55 56  2  0
 17 12  1  0
 29 22  1  0
 56 33  1  0
 29 25  1  0
 51 46  1  0
M  END
>  <Title>  (134) 
idAAFDgen7

$$$$

     RDKit          2D

 47 54  0  0  0  0  0  0  0  0999 V2000
   -1.8760    4.4687    0.0000 O   0  0  0  0  0  0  0  0  0  0  0  0
   -3.2463    3.8586    0.0000 C   0  0  0  0  0  0  0  0  0  0  0  0
   -3.4031    2.3668    0.0000 N   0  0  0  0  0  0  0  0  0  0  0  0
   -2.1895    1.4851    0.0000 C   0  0  0  0  0  0  0  0  0  0  0  0
   -0.8192    2.0952    0.0000 C   0  0  0  0  0  0  0  0  0  0  0  0
    0.3943    1.2135    0.0000 C   0  0  0  0  0  0  0  0  0  0  0  0
    1.2760    0.0000    0.0000 C   0  0  0  0  0  0  0  0  0  0  0  0
    0.3943   -1.2135    0.0000 C   0  0  0  0  0  0  0  0  0  0  0  0
   -1.0323   -0.7500    0.0000 C   0  0  0  0  0  0  0  0  0  0  0  0
   -2.3463   -0.0067    0.0000 C   0  0  0  0  0  0  0  0  0  0  0  0
   -1.0323    0.7500    0.0000 N   0  0  0  0  0  0  0  0  0  0  0  0
   -2.2458    1.6317    0.0000 C   0  0  0  0  0  0  0  0  0  0  0  0
   -2.0890    3.1235    0.0000 C   0  0  0  0  0  0  0  0  0  0  0  0
   -3.3025    4.0051    0.0000 C   0  0  0  0  0  0  0  0  0  0  0  0
   -3.1458    5.4969    0.0000 C   0  0  0  0  0  0  0  0  0  0  0  0
   -4.3593    6.3786    0.0000 C   0  0  0  0  0  0  0  0  0  0  0  0
   -5.7296    5.7685    0.0000 C   0  0  0  0  0  0  0  0  0  0  0  0
   -6.9431    6.6502    0.0000 C   0  0  0  0  0  0  0  0  0  0  0  0
   -6.7863    8.1420    0.0000 C   0  0  0  0  0  0  0  0  0  0  0  0
   -7.9999    9.0236    0.0000 C   0  0  0  0  0  0  0  0  0  0  0  0
   -9.3702    8.4135    0.0000 C   0  0  0  0  0  0  0  0  0  0  0  0
   -9.5270    6.9217    0.0000 C   0  0  0  0  0  0  0  0  0  0  0  0
   -8.3134    6.0401    0.0000 N   0  0  0  0  0  0  0  0  0  0  0  0
   -5.8864    4.2767    0.0000 C   0  0  0  0  0  0  0  0  0  0  0  0
   -4.6729    3.3950    0.0000 C   0  0  0  0  0  0  0  0  0  0  0  0
   -4.4598    4.7402    0.0000 C   0  0  0  0  0  0  0  0  0  0  0  0
   -4.3030    6.2320    0.0000 C   0  0  0  0  0  0  0  0  0  0  0  0
   -5.5165    7.1137    0.0000 C   0  0  0  0  0  0  0  0  0  0  0  0
   -6.9431    7.5772    0.0000 C   0  0  0  0  0  0  0  0  0  0  0  0
   -7.8248    6.3637    0.0000 C   0  0  0  0  0  0  0  0  0  0  0  0
   -6.9431    5.1502    0.0000 C   0  0  0  0  0  0  0  0  0  0  0  0
   -5.8301    4.1301    0.0000 C   0  0  0  0  0  0  0  0  0  0  0  0
   -5.5165    5.6137    0.0000 N   0  0  0  0  0  0  0  0  0  0  0  0
   -4.3030    4.7320    0.0000 C   0  0  0  0  0  0  0  0  0  0  0  0
   -4.4598    3.2402    0.0000 C   0  0  0  0  0  0  0  0  0  0  0  0
   -3.2463    2.3586    0.0000 C   0  0  0  0  0  0  0  0  0  0  0  0
   -3.4031    0.8668    0.0000 C   0  0  0  0  0  0  0  0  0  0  0  0
   -2.1895   -0.0149    0.0000 C   0  0  0  0  0  0  0  0  0  0  0  0
   -0.8192    0.5952    0.0000 C   0  0  0  0  0  0  0  0  0  0  0  0
    0.3943   -0.2865    0.0000 C   0  0  0  0  0  0  0  0  0  0  0  0
    0.2375   -1.7783    0.0000 C   0  0  0  0  0  0  0  0  0  0  0  0
    1.4510   -2.6599    0.0000 C   0  0  0  0  0  0  0  0  0  0  0  0
    2.8213   -2.0498    0.0000 C   0  0  0  0  0  0  0  0  0  0  0  0
    2.9781   -0.5580    0.0000 C   0  0  0  0  0  0  0  0  0  0  0  0
    1.7646    0.3236    0.0000 N   0  0  0  0  0  0  0  0  0  0  0  0
   -0.6624    2.0870    0.0000 C   0  0  0  0  0  0  0  0  0  0  0  0
   -1.8760    2.9687    0.0000 C   0  0  0  0  0  0  0  0  0  0  0  0
  1  2  2  0
  2  3  1  0
  3  4  1  0
  4  5  1  0
  5  6  1  0
  6  7  1  0
  7  8  1  0
  8  9  1  0
  9 10  1  0
  9 11  1  0
 11 12  1  0
 12 13  1  0
 13 14  1  0
 14 15  2  0
 15 16  1  0
 16 17  2  0
 17 18  1  0
 18 19  2  0
 19 20  1  0
 20 21  2  0
 21 22  1  0
 22 23  2  0
 17 24  1  0
 24 25  2  0
  2 26  1  0
 26 27  1  0
 27 28  1  0
 28 29  1  0
 29 30  1  0
 30 31  1  0
 31 32  1  0
 31 33  1  0
 33 34  1  0
 34 35  1  0
 35 36  1  0
 36 37  2  0
 37 38  1  0
 38 39  2  0
 39 40  1  0
 40 41  2  0
 41 42  1  0
 42 43  2  0
 43 44  1  0
 44 45  2  0
 39 46  1  0
 46 47  2  0
 10  4  1  0
 25 14  1  0
 32 26  1  0
 47 36  1  0
 11  6  1  0
 23 18  1  0
 33 28  1  0
 45 40  1  0
M  END
>  <Title>  (135) 
idAAFEgen7

$$$$

     RDKit          2D

 52 56  0  0  0  0  0  0  0  0999 V2000
   -6.5278    4.5069    0.0000 C   0  0  0  0  0  0  0  0  0  0  0  0
   -6.4306    3.0101    0.0000 C   0  0  0  0  0  0  0  0  0  0  0  0
   -6.5165    1.5125    0.0000 C   0  0  0  0  0  0  0  0  0  0  0  0
   -7.9065    3.2779    0.0000 C   0  0  0  0  0  0  0  0  0  0  0  0
   -4.9547    2.7422    0.0000 N   0  0  0  0  0  0  0  0  0  0  0  0
   -4.4487    1.3301    0.0000 C   0  0  0  0  0  0  0  0  0  0  0  0
   -5.4186    0.1859    0.0000 O   0  0  0  0  0  0  0  0  0  0  0  0
   -2.9728    1.0623    0.0000 C   0  0  0  0  0  0  0  0  0  0  0  0
   -2.0911    2.2758    0.0000 C   0  0  0  0  0  0  0  0  0  0  0  0
   -0.5926    2.3431    0.0000 C   0  0  0  0  0  0  0  0  0  0  0  0
    0.3943    1.2135    0.0000 C   0  0  0  0  0  0  0  0  0  0  0  0
    1.2760    0.0000    0.0000 C   0  0  0  0  0  0  0  0  0  0  0  0
    0.3943   -1.2135    0.0000 C   0  0  0  0  0  0  0  0  0  0  0  0
   -1.0323   -0.7500    0.0000 C   0  0  0  0  0  0  0  0  0  0  0  0
   -2.5737   -0.3836    0.0000 C   0  0  0  0  0  0  0  0  0  0  0  0
   -1.0323    0.7500    0.0000 C   0  0  0  0  0  0  0  0  0  0  0  0
   -2.2458    1.6317    0.0000 C   0  0  0  0  0  0  0  0  0  0  0  0
   -3.7230    1.3713    0.0000 O   0  0  0  0  0  0  0  0  0  0  0  0
   -2.0890    3.1235    0.0000 N   0  0  0  0  0  0  0  0  0  0  0  0
   -3.3025    4.0051    0.0000 C   0  0  0  0  0  0  0  0  0  0  0  0
   -3.1458    5.4969    0.0000 C   0  0  0  0  0  0  0  0  0  0  0  0
   -4.3593    6.3786    0.0000 C   0  0  0  0  0  0  0  0  0  0  0  0
   -4.2025    7.8704    0.0000 C   0  0  0  0  0  0  0  0  0  0  0  0
   -5.4160    8.7521    0.0000 C   0  0  0  0  0  0  0  0  0  0  0  0
   -6.7863    8.1420    0.0000 C   0  0  0  0  0  0  0  0  0  0  0  0
   -6.9431    6.6502    0.0000 C   0  0  0  0  0  0  0  0  0  0  0  0
   -5.7296    5.7685    0.0000 C   0  0  0  0  0  0  0  0  0  0  0  0
   -4.6729    3.3950    0.0000 C   0  0  0  0  0  0  0  0  0  0  0  0
   -5.5118    2.1516    0.0000 O   0  0  0  0  0  0  0  0  0  0  0  0
   -5.8864    4.2767    0.0000 N   0  0  0  0  0  0  0  0  0  0  0  0
   -7.2567    3.6666    0.0000 C   0  0  0  0  0  0  0  0  0  0  0  0
   -8.4702    4.5483    0.0000 C   0  0  0  0  0  0  0  0  0  0  0  0
   -9.8406    3.9382    0.0000 C   0  0  0  0  0  0  0  0  0  0  0  0
  -11.0541    4.8199    0.0000 C   0  0  0  0  0  0  0  0  0  0  0  0
  -12.4244    4.2098    0.0000 C   0  0  0  0  0  0  0  0  0  0  0  0
  -12.5812    2.7180    0.0000 C   0  0  0  0  0  0  0  0  0  0  0  0
  -11.3677    1.8363    0.0000 C   0  0  0  0  0  0  0  0  0  0  0  0
   -9.9973    2.4464    0.0000 C   0  0  0  0  0  0  0  0  0  0  0  0
   -7.4135    2.1748    0.0000 C   0  0  0  0  0  0  0  0  0  0  0  0
   -6.3165    1.1518    0.0000 O   0  0  0  0  0  0  0  0  0  0  0  0
   -8.7838    1.5647    0.0000 N   0  0  0  0  0  0  0  0  0  0  0  0
   -8.9406    0.0729    0.0000 C   0  0  0  0  0  0  0  0  0  0  0  0
  -10.3109   -0.5372    0.0000 C   0  0  0  0  0  0  0  0  0  0  0  0
  -10.4677   -2.0290    0.0000 C   0  0  0  0  0  0  0  0  0  0  0  0
  -11.8380   -2.6391    0.0000 C   0  0  0  0  0  0  0  0  0  0  0  0
  -11.9948   -4.1308    0.0000 C   0  0  0  0  0  0  0  0  0  0  0  0
  -10.7813   -5.0125    0.0000 C   0  0  0  0  0  0  0  0  0  0  0  0
   -9.4110   -4.4024    0.0000 C   0  0  0  0  0  0  0  0  0  0  0  0
   -9.2542   -2.9106    0.0000 C   0  0  0  0  0  0  0  0  0  0  0  0
   -7.7271   -0.8087    0.0000 C   0  0  0  0  0  0  0  0  0  0  0  0
   -6.3568   -0.1986    0.0000 O   0  0  0  0  0  0  0  0  0  0  0  0
   -7.8839   -2.3005    0.0000 O   0  0  0  0  0  0  0  0  0  0  0  0
  1  2  1  0
  2  3  1  0
  2  4  1  0
  2  5  1  0
  5  6  1  0
  6  7  2  0
  6  8  1  0
  8  9  1  0
  9 10  1  0
 10 11  1  0
 11 12  1  0
 12 13  1  0
 13 14  1  0
 14 15  1  0
 14 16  1  0
 16 17  1  0
 17 18  2  0
 17 19  1  0
 19 20  1  0
 20 21  1  0
 21 22  1  0
 22 23  2  0
 23 24  1  0
 24 25  2  0
 25 26  1  0
 26 27  2  0
 20 28  1  0
 28 29  2  0
 28 30  1  0
 30 31  1  0
 31 32  1  0
 32 33  1  0
 33 34  2  0
 34 35  1  0
 35 36  2  0
 36 37  1  0
 37 38  2  0
 31 39  1  0
 39 40  2  0
 39 41  1  0
 41 42  1  0
 42 43  1  0
 43 44  1  0
 44 45  2  0
 45 46  1  0
 46 47  2  0
 47 48  1  0
 48 49  2  0
 42 50  1  0
 50 51  2  0
 50 52  1  0
 15  8  1  0
 27 22  1  0
 38 33  1  0
 49 44  1  0
 16 11  1  0
M  END
>  <Title>  (136) 
idAAFFgen7

$$$$

     RDKit          2D

 77 84  0  0  0  0  0  0  0  0999 V2000
    9.7500   -3.8971    0.0000 C   0  0  0  0  0  0  0  0  0  0  0  0
    8.2500   -3.8971    0.0000 C   0  0  0  0  0  0  0  0  0  0  0  0
    7.5000   -2.5981    0.0000 C   0  0  0  0  0  0  0  0  0  0  0  0
    8.2500   -1.2990    0.0000 C   0  0  0  0  0  0  0  0  0  0  0  0
    9.7500   -1.2990    0.0000 C   0  0  0  0  0  0  0  0  0  0  0  0
   10.5000   -0.0000    0.0000 C   0  0  0  0  0  0  0  0  0  0  0  0
    9.7500    1.2990    0.0000 C   0  0  0  0  0  0  0  0  0  0  0  0
    8.2500    1.2990    0.0000 C   0  0  0  0  0  0  0  0  0  0  0  0
    7.5000   -0.0000    0.0000 C   0  0  0  0  0  0  0  0  0  0  0  0
    7.5000   -5.1962    0.0000 N   0  0  0  0  0  0  0  0  0  0  0  0
    6.0000   -5.1962    0.0000 C   0  0  0  0  0  0  0  0  0  0  0  0
    5.5866   -3.7542    0.0000 O   0  0  0  0  0  0  0  0  0  0  0  0
    5.2500   -6.4952    0.0000 C   0  0  0  0  0  0  0  0  0  0  0  0
    6.0000   -7.7942    0.0000 C   0  0  0  0  0  0  0  0  0  0  0  0
    7.5000   -7.7942    0.0000 C   0  0  0  0  0  0  0  0  0  0  0  0
    8.2500   -9.0933    0.0000 C   0  0  0  0  0  0  0  0  0  0  0  0
    9.7500   -9.0933    0.0000 C   0  0  0  0  0  0  0  0  0  0  0  0
   10.5000   -7.7942    0.0000 C   0  0  0  0  0  0  0  0  0  0  0  0
    9.7500   -6.4952    0.0000 C   0  0  0  0  0  0  0  0  0  0  0  0
    8.2500   -6.4952    0.0000 C   0  0  0  0  0  0  0  0  0  0  0  0
    3.7500   -6.4952    0.0000 N   0  0  0  0  0  0  0  0  0  0  0  0
    3.0000   -5.1962    0.0000 C   0  0  0  0  0  0  0  0  0  0  0  0
    3.7500   -3.8971    0.0000 O   0  0  0  0  0  0  0  0  0  0  0  0
    1.5000   -5.1962    0.0000 C   0  0  0  0  0  0  0  0  0  0  0  0
    0.7500   -6.4952    0.0000 C   0  0  0  0  0  0  0  0  0  0  0  0
    1.5000   -7.7942    0.0000 C   0  0  0  0  0  0  0  0  0  0  0  0
    0.7500   -9.0933    0.0000 C   0  0  0  0  0  0  0  0  0  0  0  0
    1.5000  -10.3923    0.0000 C   0  0  0  0  0  0  0  0  0  0  0  0
    3.0000  -10.3923    0.0000 C   0  0  0  0  0  0  0  0  0  0  0  0
    3.7500   -9.0933    0.0000 C   0  0  0  0  0  0  0  0  0  0  0  0
    3.0000   -7.7942    0.0000 C   0  0  0  0  0  0  0  0  0  0  0  0
    0.7500   -3.8971    0.0000 C   0  0  0  0  0  0  0  0  0  0  0  0
   -0.7500   -3.8971    0.0000 O   0  0  0  0  0  0  0  0  0  0  0  0
    1.5000   -2.5981    0.0000 N   0  0  0  0  0  0  0  0  0  0  0  0
    0.7500   -1.2990    0.0000 C   0  0  0  0  0  0  0  0  0  0  0  0
    1.5000    0.0000    0.0000 C   0  0  0  0  0  0  0  0  0  0  0  0
    0.7500    1.2990    0.0000 C   0  0  0  0  0  0  0  0  0  0  0  0
   -0.7500    1.2990    0.0000 C   0  0  0  0  0  0  0  0  0  0  0  0
   -1.5000    0.0000    0.0000 C   0  0  0  0  0  0  0  0  0  0  0  0
   -0.7500   -1.2990    0.0000 C   0  0  0  0  0  0  0  0  0  0  0  0
   -0.0000   -0.0000    0.0000 C   0  0  0  0  0  0  0  0  0  0  0  0
    0.7500   -1.2990    0.0000 C   0  0  0  0  0  0  0  0  0  0  0  0
    2.2500   -1.2990    0.0000 O   0  0  0  0  0  0  0  0  0  0  0  0
   -0.0000   -2.5981    0.0000 N   0  0  0  0  0  0  0  0  0  0  0  0
    0.7500   -3.8971    0.0000 C   0  0  0  0  0  0  0  0  0  0  0  0
   -0.0000   -5.1962    0.0000 C   0  0  0  0  0  0  0  0  0  0  0  0
    0.7500   -6.4952    0.0000 C   0  0  0  0  0  0  0  0  0  0  0  0
   -0.0000   -7.7942    0.0000 C   0  0  0  0  0  0  0  0  0  0  0  0
    0.7500   -9.0933    0.0000 C   0  0  0  0  0  0  0  0  0  0  0  0
    2.2500   -9.0933    0.0000 C   0  0  0  0  0  0  0  0  0  0  0  0
    3.0000   -7.7942    0.0000 C   0  0  0  0  0  0  0  0  0  0  0  0
    2.2500   -6.4952    0.0000 C   0  0  0  0  0  0  0  0  0  0  0  0
    2.2500   -3.8971    0.0000 C   0  0  0  0  0  0  0  0  0  0  0  0
    3.0000   -2.5981    0.0000 O   0  0  0  0  0  0  0  0  0  0  0  0
    3.0000   -5.1962    0.0000 N   0  0  0  0  0  0  0  0  0  0  0  0
    4.5000   -5.1962    0.0000 C   0  0  0  0  0  0  0  0  0  0  0  0
    5.2500   -6.4952    0.0000 C   0  0  0  0  0  0  0  0  0  0  0  0
    6.7500   -6.4952    0.0000 C   0  0  0  0  0  0  0  0  0  0  0  0
    7.5000   -7.7942    0.0000 C   0  0  0  0  0  0  0  0  0  0  0  0
    9.0000   -7.7942    0.0000 C   0  0  0  0  0  0  0  0  0  0  0  0
    9.7500   -6.4952    0.0000 C   0  0  0  0  0  0  0  0  0  0  0  0
    9.0000   -5.1962    0.0000 C   0  0  0  0  0  0  0  0  0  0  0  0
    7.5000   -5.1962    0.0000 C   0  0  0  0  0  0  0  0  0  0  0  0
    5.2500   -3.8971    0.0000 C   0  0  0  0  0  0  0  0  0  0  0  0
    4.5000   -2.5981    0.0000 O   0  0  0  0  0  0  0  0  0  0  0  0
    6.7500   -3.8971    0.0000 N   0  0  0  0  0  0  0  0  0  0  0  0
    7.5000   -2.5981    0.0000 C   0  0  0  0  0  0  0  0  0  0  0  0
    9.0000   -2.5981    0.0000 C   0  0  0  0  0  0  0  0  0  0  0  0
    9.7500   -1.2990    0.0000 C   0  0  0  0  0  0  0  0  0  0  0  0
   11.2500   -1.2990    0.0000 C   0  0  0  0  0  0  0  0  0  0  0  0
   12.0000   -0.0000    0.0000 C   0  0  0  0  0  0  0  0  0  0  0  0
   11.2500    1.2990    0.0000 C   0  0  0  0  0  0  0  0  0  0  0  0
    9.7500    1.2990    0.0000 C   0  0  0  0  0  0  0  0  0  0  0  0
    9.0000   -0.0000    0.0000 C   0  0  0  0  0  0  0  0  0  0  0  0
    6.7500   -1.2990    0.0000 C   0  0  0  0  0  0  0  0  0  0  0  0
    5.2500   -1.2990    0.0000 O   0  0  0  0  0  0  0  0  0  0  0  0
    7.1634    0.1429    0.0000 O   0  0  0  0  0  0  0  0  0  0  0  0
  1  2  1  0
  2  3  1  0
  3  4  1  0
  4  5  2  0
  5  6  1  0
  6  7  2  0
  7  8  1  0
  8  9  2  0
  2 10  1  0
 10 11  1  0
 11 12  2  0
 11 13  1  0
 13 14  1  0
 14 15  1  0
 15 16  2  0
 16 17  1  0
 17 18  2  0
 18 19  1  0
 19 20  2  0
 13 21  1  0
 21 22  1  0
 22 23  2  0
 22 24  1  0
 24 25  1  0
 25 26  1  0
 26 27  2  0
 27 28  1  0
 28 29  2  0
 29 30  1  0
 30 31  2  0
 24 32  1  0
 32 33  2  0
 32 34  1  0
 34 35  1  0
 35 36  1  0
 36 37  1  0
 37 38  1  0
 38 39  1  0
 39 40  1  0
 39 41  1  0
 41 42  1  0
 42 43  2  0
 42 44  1  0
 44 45  1  0
 45 46  1  0
 46 47  1  0
 47 48  2  0
 48 49  1  0
 49 50  2  0
 50 51  1  0
 51 52  2  0
 45 53  1  0
 53 54  2  0
 53 55  1  0
 55 56  1  0
 56 57  1  0
 57 58  1  0
 58 59  2  0
 59 60  1  0
 60 61  2  0
 61 62  1  0
 62 63  2  0
 56 64  1  0
 64 65  2  0
 64 66  1  0
 66 67  1  0
 67 68  1  0
 68 69  1  0
 69 70  2  0
 70 71  1  0
 71 72  2  0
 72 73  1  0
 73 74  2  0
 67 75  1  0
 75 76  2  0
 75 77  1  0
  9  4  1  0
 20 15  1  0
 31 26  1  0
 40 35  1  0
 52 47  1  0
 63 58  1  0
 74 69  1  0
 41 37  1  0
M  END
>  <Title>  (137) 
idAAFGgen7

$$$$

     RDKit          2D

 49 53  0  0  0  0  0  0  0  0999 V2000
   -1.4033    6.9044    0.0000 C   0  0  0  0  0  0  0  0  0  0  0  0
   -2.7242    6.1936    0.0000 C   0  0  0  0  0  0  0  0  0  0  0  0
   -4.0451    5.4828    0.0000 C   0  0  0  0  0  0  0  0  0  0  0  0
   -3.4350    7.5145    0.0000 C   0  0  0  0  0  0  0  0  0  0  0  0
   -2.0134    4.8727    0.0000 N   0  0  0  0  0  0  0  0  0  0  0  0
   -2.8019    3.5967    0.0000 C   0  0  0  0  0  0  0  0  0  0  0  0
   -4.2675    3.2775    0.0000 O   0  0  0  0  0  0  0  0  0  0  0  0
   -2.0911    2.2758    0.0000 C   0  0  0  0  0  0  0  0  0  0  0  0
   -0.5926    2.3431    0.0000 C   0  0  0  0  0  0  0  0  0  0  0  0
    0.3943    1.2135    0.0000 C   0  0  0  0  0  0  0  0  0  0  0  0
    1.2760    0.0000    0.0000 C   0  0  0  0  0  0  0  0  0  0  0  0
    0.3943   -1.2135    0.0000 C   0  0  0  0  0  0  0  0  0  0  0  0
   -1.0323   -0.7500    0.0000 C   0  0  0  0  0  0  0  0  0  0  0  0
   -2.5737   -0.3836    0.0000 C   0  0  0  0  0  0  0  0  0  0  0  0
   -2.9728    1.0623    0.0000 C   0  0  0  0  0  0  0  0  0  0  0  0
   -4.4487    1.3301    0.0000 C   0  0  0  0  0  0  0  0  0  0  0  0
   -5.2813    2.5778    0.0000 O   0  0  0  0  0  0  0  0  0  0  0  0
   -5.4186    0.1859    0.0000 N   0  0  0  0  0  0  0  0  0  0  0  0
   -6.8945    0.4537    0.0000 C   0  0  0  0  0  0  0  0  0  0  0  0
   -7.8644   -0.6905    0.0000 C   0  0  0  0  0  0  0  0  0  0  0  0
   -9.3403   -0.4227    0.0000 C   0  0  0  0  0  0  0  0  0  0  0  0
   -9.8463    0.9894    0.0000 C   0  0  0  0  0  0  0  0  0  0  0  0
  -11.3221    1.2572    0.0000 C   0  0  0  0  0  0  0  0  0  0  0  0
  -12.2920    0.1130    0.0000 C   0  0  0  0  0  0  0  0  0  0  0  0
  -11.7861   -1.2991    0.0000 C   0  0  0  0  0  0  0  0  0  0  0  0
  -10.3102   -1.5669    0.0000 C   0  0  0  0  0  0  0  0  0  0  0  0
   -7.4005    1.8658    0.0000 C   0  0  0  0  0  0  0  0  0  0  0  0
   -6.4306    3.0101    0.0000 O   0  0  0  0  0  0  0  0  0  0  0  0
   -8.8764    2.1337    0.0000 N   0  0  0  0  0  0  0  0  0  0  0  0
   -9.3823    3.5457    0.0000 C   0  0  0  0  0  0  0  0  0  0  0  0
  -10.8582    3.8136    0.0000 C   0  0  0  0  0  0  0  0  0  0  0  0
  -11.3642    5.2256    0.0000 C   0  0  0  0  0  0  0  0  0  0  0  0
  -10.3943    6.3699    0.0000 C   0  0  0  0  0  0  0  0  0  0  0  0
  -10.9003    7.7820    0.0000 C   0  0  0  0  0  0  0  0  0  0  0  0
  -12.3762    8.0498    0.0000 C   0  0  0  0  0  0  0  0  0  0  0  0
  -13.3461    6.9056    0.0000 C   0  0  0  0  0  0  0  0  0  0  0  0
  -12.8401    5.4935    0.0000 C   0  0  0  0  0  0  0  0  0  0  0  0
   -8.4125    4.6900    0.0000 C   0  0  0  0  0  0  0  0  0  0  0  0
   -6.9366    4.4221    0.0000 O   0  0  0  0  0  0  0  0  0  0  0  0
   -8.9184    6.1021    0.0000 O   0  0  0  0  0  0  0  0  0  0  0  0
   -1.0323    0.7500    0.0000 C   0  0  0  0  0  0  0  0  0  0  0  0
   -2.2458    1.6317    0.0000 C   0  0  0  0  0  0  0  0  0  0  0  0
   -2.0890    3.1235    0.0000 C   0  0  0  0  0  0  0  0  0  0  0  0
   -3.3025    4.0051    0.0000 C   0  0  0  0  0  0  0  0  0  0  0  0
   -3.1458    5.4969    0.0000 C   0  0  0  0  0  0  0  0  0  0  0  0
   -4.3593    6.3786    0.0000 C   0  0  0  0  0  0  0  0  0  0  0  0
   -5.7296    5.7685    0.0000 C   0  0  0  0  0  0  0  0  0  0  0  0
   -5.8864    4.2767    0.0000 C   0  0  0  0  0  0  0  0  0  0  0  0
   -4.6729    3.3950    0.0000 C   0  0  0  0  0  0  0  0  0  0  0  0
  1  2  1  0
  2  3  1  0
  2  4  1  0
  2  5  1  0
  5  6  1  0
  6  7  2  0
  6  8  1  0
  8  9  1  0
  9 10  1  0
 10 11  1  0
 11 12  1  0
 12 13  1  0
 13 14  1  0
 14 15  1  0
 15 16  1  0
 16 17  2  0
 16 18  1  0
 18 19  1  0
 19 20  1  0
 20 21  1  0
 21 22  2  0
 22 23  1  0
 23 24  2  0
 24 25  1  0
 25 26  2  0
 19 27  1  0
 27 28  2  0
 27 29  1  0
 29 30  1  0
 30 31  1  0
 31 32  1  0
 32 33  2  0
 33 34  1  0
 34 35  2  0
 35 36  1  0
 36 37  2  0
 30 38  1  0
 38 39  2  0
 38 40  1  0
 13 41  1  0
 41 42  1  0
 42 43  1  0
 43 44  1  0
 44 45  2  0
 45 46  1  0
 46 47  2  0
 47 48  1  0
 48 49  2  0
 15  8  1  0
 26 21  1  0
 37 32  1  0
 49 44  1  0
 41 10  1  0
M  END
>  <Title>  (138) 
idAAFHgen7

$$$$

     RDKit          2D

 36 41  0  0  0  0  0  0  0  0999 V2000
   -3.8179   -4.8135    0.0000 C   0  0  0  0  0  0  0  0  0  0  0  0
   -2.9499   -3.5902    0.0000 C   0  0  0  0  0  0  0  0  0  0  0  0
   -4.3357   -3.0162    0.0000 C   0  0  0  0  0  0  0  0  0  0  0  0
   -1.9504   -4.7087    0.0000 C   0  0  0  0  0  0  0  0  0  0  0  0
   -0.4528   -4.6246    0.0000 C   0  0  0  0  0  0  0  0  0  0  0  0
    0.4153   -3.4012    0.0000 C   0  0  0  0  0  0  0  0  0  0  0  0
   -0.0000   -1.9598    0.0000 C   0  0  0  0  0  0  0  0  0  0  0  0
    1.3515   -2.6107    0.0000 C   0  0  0  0  0  0  0  0  0  0  0  0
    1.3858   -1.3858    0.0000 C   0  0  0  0  0  0  0  0  0  0  0  0
    2.4465   -2.4465    0.0000 C   0  0  0  0  0  0  0  0  0  0  0  0
    3.8954   -2.0583    0.0000 C   0  0  0  0  0  0  0  0  0  0  0  0
    4.9560   -3.1189    0.0000 C   0  0  0  0  0  0  0  0  0  0  0  0
    6.4376   -2.8843    0.0000 C   0  0  0  0  0  0  0  0  0  0  0  0
    7.1185   -4.2208    0.0000 C   0  0  0  0  0  0  0  0  0  0  0  0
    6.0579   -5.2814    0.0000 C   0  0  0  0  0  0  0  0  0  0  0  0
    4.7214   -4.6004    0.0000 C   0  0  0  0  0  0  0  0  0  0  0  0
    1.9598    0.0000    0.0000 C   0  0  0  0  0  0  0  0  0  0  0  0
    1.3858    1.3858    0.0000 C   0  0  0  0  0  0  0  0  0  0  0  0
    0.0000    1.9598    0.0000 C   0  0  0  0  0  0  0  0  0  0  0  0
   -1.3858    1.3858    0.0000 C   0  0  0  0  0  0  0  0  0  0  0  0
   -1.9598    0.0000    0.0000 C   0  0  0  0  0  0  0  0  0  0  0  0
   -1.3858   -1.3858    0.0000 C   0  0  0  0  0  0  0  0  0  0  0  0
   -2.8016   -0.8904    0.0000 C   0  0  0  0  0  0  0  0  0  0  0  0
   -2.6987   -2.1114    0.0000 C   0  0  0  0  0  0  0  0  0  0  0  0
   -3.9220   -1.2434    0.0000 C   0  0  0  0  0  0  0  0  0  0  0  0
   -5.2854   -1.8688    0.0000 C   0  0  0  0  0  0  0  0  0  0  0  0
   -6.5087   -1.0008    0.0000 C   0  0  0  0  0  0  0  0  0  0  0  0
   -7.8721   -1.6263    0.0000 C   0  0  0  0  0  0  0  0  0  0  0  0
   -9.0955   -0.7583    0.0000 C   0  0  0  0  0  0  0  0  0  0  0  0
   -8.9554    0.7352    0.0000 C   0  0  0  0  0  0  0  0  0  0  0  0
   -7.5920    1.3606    0.0000 C   0  0  0  0  0  0  0  0  0  0  0  0
   -7.1441   -1.8964    0.0000 C   0  0  0  0  0  0  0  0  0  0  0  0
   -8.0122   -3.1197    0.0000 C   0  0  0  0  0  0  0  0  0  0  0  0
   -9.2355   -2.2517    0.0000 C   0  0  0  0  0  0  0  0  0  0  0  0
   -6.6488   -2.4943    0.0000 C   0  0  0  0  0  0  0  0  0  0  0  0
   -6.3687    0.4926    0.0000 C   0  0  0  0  0  0  0  0  0  0  0  0
  1  2  1  0
  2  3  1  0
  2  4  1  0
  4  5  1  0
  5  6  1  0
  6  7  1  0
  7  8  1  0
  7  9  1  0
  9 10  1  0
 10 11  1  0
 11 12  1  0
 12 13  1  0
 13 14  1  0
 14 15  1  0
 15 16  1  0
  9 17  1  0
 17 18  1  0
 18 19  1  0
 19 20  1  0
 20 21  1  0
 21 22  1  0
 22 23  1  0
 22 24  1  0
 24 25  1  0
 25 26  1  0
 26 27  1  0
 27 28  1  0
 28 29  1  0
 29 30  1  0
 30 31  1  0
 31 32  1  0
 32 33  1  0
 33 34  1  0
 33 35  1  0
 31 36  1  0
 24  2  1  0
 35 27  1  0
 22  7  1  0
 36 27  1  0
 16 12  1  0
 34 29  1  0
M  END
>  <Title>  (139) 
idAAFIgen7

$$$$

     RDKit          2D

 59 63  0  0  0  0  0  0  0  0999 V2000
   -1.5000  -10.3923    0.0000 C   0  0  0  0  0  0  0  0  0  0  0  0
   -0.7500   -9.0933    0.0000 C   0  0  0  0  0  0  0  0  0  0  0  0
   -1.5000   -7.7942    0.0000 C   0  0  0  0  0  0  0  0  0  0  0  0
    0.7500   -9.0933    0.0000 C   0  0  0  0  0  0  0  0  0  0  0  0
    1.5000   -7.7942    0.0000 N   0  0  0  0  0  0  0  0  0  0  0  0
    0.7500   -6.4952    0.0000 C   0  0  0  0  0  0  0  0  0  0  0  0
    1.5000   -5.1962    0.0000 C   0  0  0  0  0  0  0  0  0  0  0  0
    3.0000   -5.1962    0.0000 O   0  0  0  0  0  0  0  0  0  0  0  0
    0.7500   -3.8971    0.0000 C   0  0  0  0  0  0  0  0  0  0  0  0
    1.5000   -2.5981    0.0000 C   0  0  0  0  0  0  0  0  0  0  0  0
    0.7500   -1.2990    0.0000 C   0  0  0  0  0  0  0  0  0  0  0  0
    1.5000    0.0000    0.0000 C   0  0  0  0  0  0  0  0  0  0  0  0
    0.7500    1.2990    0.0000 C   0  0  0  0  0  0  0  0  0  0  0  0
   -0.7500    1.2990    0.0000 C   0  0  0  0  0  0  0  0  0  0  0  0
   -1.5000    0.0000    0.0000 C   0  0  0  0  0  0  0  0  0  0  0  0
   -0.7500   -1.2990    0.0000 C   0  0  0  0  0  0  0  0  0  0  0  0
   -0.7500   -3.8971    0.0000 N   0  0  0  0  0  0  0  0  0  0  0  0
   -1.5000   -5.1962    0.0000 C   0  0  0  0  0  0  0  0  0  0  0  0
   -0.7500   -6.4952    0.0000 O   0  0  0  0  0  0  0  0  0  0  0  0
   -3.0000   -5.1962    0.0000 C   0  0  0  0  0  0  0  0  0  0  0  0
   -3.7500   -6.4952    0.0000 C   0  0  0  0  0  0  0  0  0  0  0  0
   -5.2500   -6.4952    0.0000 C   0  0  0  0  0  0  0  0  0  0  0  0
   -5.2500   -7.9952    0.0000 C   0  0  0  0  0  0  0  0  0  0  0  0
   -5.2500   -4.9952    0.0000 C   0  0  0  0  0  0  0  0  0  0  0  0
   -6.7500   -6.4952    0.0000 C   0  0  0  0  0  0  0  0  0  0  0  0
   -3.7500   -3.8971    0.0000 N   0  0  0  0  0  0  0  0  0  0  0  0
   -3.0000   -2.5981    0.0000 C   0  0  0  0  0  0  0  0  0  0  0  0
   -1.5000   -2.5981    0.0000 O   0  0  0  0  0  0  0  0  0  0  0  0
   -3.7500   -1.2990    0.0000 C   0  0  0  0  0  0  0  0  0  0  0  0
   -3.0000   -0.0000    0.0000 C   0  0  0  0  0  0  0  0  0  0  0  0
   -3.7500    1.2990    0.0000 C   0  0  0  0  0  0  0  0  0  0  0  0
   -5.2500    1.2990    0.0000 C   0  0  0  0  0  0  0  0  0  0  0  0
   -6.0000    2.5981    0.0000 C   0  0  0  0  0  0  0  0  0  0  0  0
   -5.2500    3.8971    0.0000 C   0  0  0  0  0  0  0  0  0  0  0  0
   -3.7500    3.8971    0.0000 C   0  0  0  0  0  0  0  0  0  0  0  0
   -3.0000    2.5981    0.0000 C   0  0  0  0  0  0  0  0  0  0  0  0
   -5.2500   -1.2990    0.0000 N   0  0  0  0  0  0  0  0  0  0  0  0
   -6.0000   -2.5981    0.0000 C   0  0  0  0  0  0  0  0  0  0  0  0
   -5.2500   -3.8971    0.0000 O   0  0  0  0  0  0  0  0  0  0  0  0
   -7.5000   -2.5981    0.0000 C   0  0  0  0  0  0  0  0  0  0  0  0
   -8.2500   -1.2990    0.0000 C   0  0  0  0  0  0  0  0  0  0  0  0
   -9.7500   -1.2990    0.0000 C   0  0  0  0  0  0  0  0  0  0  0  0
  -10.5000   -2.5981    0.0000 C   0  0  0  0  0  0  0  0  0  0  0  0
   -9.7500   -3.8971    0.0000 C   0  0  0  0  0  0  0  0  0  0  0  0
   -8.2500   -3.8971    0.0000 C   0  0  0  0  0  0  0  0  0  0  0  0
    3.0000   -7.7942    0.0000 C   0  0  0  0  0  0  0  0  0  0  0  0
    3.7500   -6.4952    0.0000 O   0  0  0  0  0  0  0  0  0  0  0  0
    3.7500   -9.0933    0.0000 C   0  0  0  0  0  0  0  0  0  0  0  0
    3.0000  -10.3923    0.0000 C   0  0  0  0  0  0  0  0  0  0  0  0
    3.7500  -11.6913    0.0000 C   0  0  0  0  0  0  0  0  0  0  0  0
    5.2500  -11.6913    0.0000 C   0  0  0  0  0  0  0  0  0  0  0  0
    6.0000  -12.9904    0.0000 C   0  0  0  0  0  0  0  0  0  0  0  0
    5.2500  -14.2894    0.0000 C   0  0  0  0  0  0  0  0  0  0  0  0
    6.0000  -15.5885    0.0000 C   0  0  0  0  0  0  0  0  0  0  0  0
    7.5000  -15.5885    0.0000 C   0  0  0  0  0  0  0  0  0  0  0  0
    8.2500  -14.2894    0.0000 C   0  0  0  0  0  0  0  0  0  0  0  0
    7.5000  -12.9904    0.0000 N   0  0  0  0  0  0  0  0  0  0  0  0
    6.0000  -10.3923    0.0000 C   0  0  0  0  0  0  0  0  0  0  0  0
    5.2500   -9.0933    0.0000 C   0  0  0  0  0  0  0  0  0  0  0  0
  1  2  1  0
  2  3  1  0
  2  4  1  0
  4  5  1  0
  5  6  1  0
  6  7  1  0
  7  8  1  0
  7  9  1  0
  9 10  1  0
 10 11  1  0
 11 12  2  0
 12 13  1  0
 13 14  2  0
 14 15  1  0
 15 16  2  0
  9 17  1  0
 17 18  1  0
 18 19  2  0
 18 20  1  0
 20 21  1  0
 21 22  1  0
 22 23  1  0
 22 24  1  0
 22 25  1  0
 20 26  1  0
 26 27  1  0
 27 28  2  0
 27 29  1  0
 29 30  1  0
 30 31  1  0
 31 32  2  0
 32 33  1  0
 33 34  2  0
 34 35  1  0
 35 36  2  0
 29 37  1  0
 37 38  1  0
 38 39  2  0
 38 40  1  0
 40 41  2  0
 41 42  1  0
 42 43  2  0
 43 44  1  0
 44 45  2  0
  5 46  1  0
 46 47  2  0
 46 48  1  0
 48 49  2  0
 49 50  1  0
 50 51  2  0
 51 52  1  0
 52 53  2  0
 53 54  1  0
 54 55  2  0
 55 56  1  0
 56 57  2  0
 51 58  1  0
 58 59  2  0
 16 11  1  0
 36 31  1  0
 45 40  1  0
 59 48  1  0
 57 52  1  0
M  END
>  <Title>  (140) 
idAAFJgen7

$$$$

     RDKit          2D

 59 64  0  0  0  0  0  0  0  0999 V2000
    1.0860    1.9635    0.0000 C   0  0  0  0  0  0  0  0  0  0  0  0
    0.3360    3.2626    0.0000 N   0  0  0  0  0  0  0  0  0  0  0  0
    1.0860    4.5616    0.0000 C   0  0  0  0  0  0  0  0  0  0  0  0
    1.8595    4.3687    0.0000 O   0  0  0  0  0  0  0  0  0  0  0  0
    0.3360    5.8606    0.0000 C   0  0  0  0  0  0  0  0  0  0  0  0
   -1.1640    5.8606    0.0000 O   0  0  0  0  0  0  0  0  0  0  0  0
    1.0860    7.1597    0.0000 C   0  0  0  0  0  0  0  0  0  0  0  0
    2.5860    7.1597    0.0000 C   0  0  0  0  0  0  0  0  0  0  0  0
    3.3360    5.8606    0.0000 C   0  0  0  0  0  0  0  0  0  0  0  0
    2.5860    4.5616    0.0000 C   0  0  0  0  0  0  0  0  0  0  0  0
    3.3360    3.2626    0.0000 C   0  0  0  0  0  0  0  0  0  0  0  0
    4.8360    3.2626    0.0000 C   0  0  0  0  0  0  0  0  0  0  0  0
    5.5860    4.5616    0.0000 C   0  0  0  0  0  0  0  0  0  0  0  0
    4.8360    5.8606    0.0000 C   0  0  0  0  0  0  0  0  0  0  0  0
    0.3360    8.4587    0.0000 N   0  0  0  0  0  0  0  0  0  0  0  0
   -1.1640    8.4587    0.0000 C   0  0  0  0  0  0  0  0  0  0  0  0
   -1.9140    7.1597    0.0000 O   0  0  0  0  0  0  0  0  0  0  0  0
   -1.9140    9.7578    0.0000 C   0  0  0  0  0  0  0  0  0  0  0  0
   -1.1640   11.0568    0.0000 C   0  0  0  0  0  0  0  0  0  0  0  0
    0.3360   11.0568    0.0000 C   0  0  0  0  0  0  0  0  0  0  0  0
    1.0860    9.7578    0.0000 C   0  0  0  0  0  0  0  0  0  0  0  0
    2.5860    9.7578    0.0000 C   0  0  0  0  0  0  0  0  0  0  0  0
    3.3360   11.0568    0.0000 C   0  0  0  0  0  0  0  0  0  0  0  0
    2.5860   12.3558    0.0000 C   0  0  0  0  0  0  0  0  0  0  0  0
    1.0860   12.3558    0.0000 C   0  0  0  0  0  0  0  0  0  0  0  0
   -3.4140    9.7578    0.0000 N   0  0  0  0  0  0  0  0  0  0  0  0
   -4.1640    8.4587    0.0000 C   0  0  0  0  0  0  0  0  0  0  0  0
   -3.4140    7.1597    0.0000 O   0  0  0  0  0  0  0  0  0  0  0  0
   -5.6640    8.4587    0.0000 C   0  0  0  0  0  0  0  0  0  0  0  0
   -6.4140    9.7578    0.0000 C   0  0  0  0  0  0  0  0  0  0  0  0
   -5.6640   11.0568    0.0000 C   0  0  0  0  0  0  0  0  0  0  0  0
   -4.1640   11.0568    0.0000 C   0  0  0  0  0  0  0  0  0  0  0  0
   -3.4140   12.3558    0.0000 C   0  0  0  0  0  0  0  0  0  0  0  0
   -4.1640   13.6549    0.0000 C   0  0  0  0  0  0  0  0  0  0  0  0
   -5.6640   13.6549    0.0000 C   0  0  0  0  0  0  0  0  0  0  0  0
   -6.4140   12.3558    0.0000 C   0  0  0  0  0  0  0  0  0  0  0  0
   -6.4140    7.1597    0.0000 N   0  0  0  0  0  0  0  0  0  0  0  0
   -5.6640    5.8606    0.0000 C   0  0  0  0  0  0  0  0  0  0  0  0
   -4.1640    5.8606    0.0000 O   0  0  0  0  0  0  0  0  0  0  0  0
   -6.4140    4.5616    0.0000 C   0  0  0  0  0  0  0  0  0  0  0  0
   -7.9140    4.5616    0.0000 C   0  0  0  0  0  0  0  0  0  0  0  0
   -8.6640    5.8606    0.0000 C   0  0  0  0  0  0  0  0  0  0  0  0
   -7.9140    7.1597    0.0000 C   0  0  0  0  0  0  0  0  0  0  0  0
   -8.6640    8.4587    0.0000 C   0  0  0  0  0  0  0  0  0  0  0  0
  -10.1640    8.4587    0.0000 C   0  0  0  0  0  0  0  0  0  0  0  0
  -10.9140    7.1597    0.0000 C   0  0  0  0  0  0  0  0  0  0  0  0
  -10.1640    5.8606    0.0000 C   0  0  0  0  0  0  0  0  0  0  0  0
   -5.6640    3.2626    0.0000 N   0  0  0  0  0  0  0  0  0  0  0  0
   -4.1640    3.2626    0.0000 C   0  0  0  0  0  0  0  0  0  0  0  0
   -3.4140    4.5616    0.0000 O   0  0  0  0  0  0  0  0  0  0  0  0
   -3.4140    1.9635    0.0000 O   0  0  0  0  0  0  0  0  0  0  0  0
   -1.9140    1.9635    0.0000 C   0  0  0  0  0  0  0  0  0  0  0  0
   -1.0323    3.1771    0.0000 C   0  0  0  0  0  0  0  0  0  0  0  0
    0.3943    2.7135    0.0000 O   0  0  0  0  0  0  0  0  0  0  0  0
    0.3943    1.2135    0.0000 C   0  0  0  0  0  0  0  0  0  0  0  0
    1.2760    0.0000    0.0000 O   0  0  0  0  0  0  0  0  0  0  0  0
    0.3943   -1.2135    0.0000 C   0  0  0  0  0  0  0  0  0  0  0  0
   -1.0323   -0.7500    0.0000 C   0  0  0  0  0  0  0  0  0  0  0  0
   -1.0323    0.7500    0.0000 C   0  0  0  0  0  0  0  0  0  0  0  0
  1  2  1  0
  2  3  1  0
  3  4  2  0
  3  5  1  0
  5  6  1  0
  5  7  1  0
  7  8  1  0
  8  9  1  0
  9 10  2  0
 10 11  1  0
 11 12  2  0
 12 13  1  0
 13 14  2  0
  7 15  1  0
 15 16  1  0
 16 17  2  0
 16 18  1  0
 18 19  1  0
 19 20  1  0
 20 21  2  0
 21 22  1  0
 22 23  2  0
 23 24  1  0
 24 25  2  0
 18 26  1  0
 26 27  1  0
 27 28  2  0
 27 29  1  0
 29 30  1  0
 30 31  1  0
 31 32  2  0
 32 33  1  0
 33 34  2  0
 34 35  1  0
 35 36  2  0
 29 37  1  0
 37 38  1  0
 38 39  2  0
 38 40  1  0
 40 41  1  0
 41 42  1  0
 42 43  2  0
 43 44  1  0
 44 45  2  0
 45 46  1  0
 46 47  2  0
 40 48  1  0
 48 49  1  0
 49 50  2  0
 49 51  1  0
 51 52  1  0
 52 53  1  0
 53 54  1  0
 54 55  1  0
 55 56  1  0
 56 57  1  0
 57 58  1  0
 58 59  1  0
 14  9  1  0
 25 20  1  0
 36 31  1  0
 47 42  1  0
 59 52  1  0
 59 55  1  0
M  END
>  <Title>  (141) 
idAAFKgen7

$$$$

     RDKit          2D

 53 57  0  0  0  0  0  0  0  0999 V2000
   -5.0984    5.7571    0.0000 C   0  0  0  0  0  0  0  0  0  0  0  0
   -3.7177    6.3433    0.0000 C   0  0  0  0  0  0  0  0  0  0  0  0
   -2.2361    6.5779    0.0000 C   0  0  0  0  0  0  0  0  0  0  0  0
   -3.5869    7.8376    0.0000 C   0  0  0  0  0  0  0  0  0  0  0  0
   -3.4830    4.8617    0.0000 C   0  0  0  0  0  0  0  0  0  0  0  0
   -2.0827    4.3242    0.0000 C   0  0  0  0  0  0  0  0  0  0  0  0
   -0.9169    5.2682    0.0000 O   0  0  0  0  0  0  0  0  0  0  0  0
   -1.8480    2.8427    0.0000 N   0  0  0  0  0  0  0  0  0  0  0  0
   -3.1270    2.0589    0.0000 C   0  0  0  0  0  0  0  0  0  0  0  0
   -3.4771    0.6004    0.0000 C   0  0  0  0  0  0  0  0  0  0  0  0
   -2.6934   -0.6786    0.0000 O   0  0  0  0  0  0  0  0  0  0  0  0
   -1.0323   -0.7500    0.0000 C   0  0  0  0  0  0  0  0  0  0  0  0
    0.3943   -1.2135    0.0000 C   0  0  0  0  0  0  0  0  0  0  0  0
    1.2760    0.0000    0.0000 C   0  0  0  0  0  0  0  0  0  0  0  0
    0.3943    1.2135    0.0000 C   0  0  0  0  0  0  0  0  0  0  0  0
   -0.3894    2.4925    0.0000 C   0  0  0  0  0  0  0  0  0  0  0  0
   -1.0323    0.7500    0.0000 C   0  0  0  0  0  0  0  0  0  0  0  0
   -2.2458    1.6317    0.0000 C   0  0  0  0  0  0  0  0  0  0  0  0
   -3.7230    1.3713    0.0000 O   0  0  0  0  0  0  0  0  0  0  0  0
   -2.0890    3.1235    0.0000 N   0  0  0  0  0  0  0  0  0  0  0  0
   -3.3025    4.0051    0.0000 C   0  0  0  0  0  0  0  0  0  0  0  0
   -3.1458    5.4969    0.0000 C   0  0  0  0  0  0  0  0  0  0  0  0
   -4.3593    6.3786    0.0000 C   0  0  0  0  0  0  0  0  0  0  0  0
   -4.2025    7.8704    0.0000 C   0  0  0  0  0  0  0  0  0  0  0  0
   -5.4160    8.7521    0.0000 C   0  0  0  0  0  0  0  0  0  0  0  0
   -6.7863    8.1420    0.0000 C   0  0  0  0  0  0  0  0  0  0  0  0
   -6.9431    6.6502    0.0000 C   0  0  0  0  0  0  0  0  0  0  0  0
   -5.7296    5.7685    0.0000 C   0  0  0  0  0  0  0  0  0  0  0  0
   -4.6729    3.3950    0.0000 C   0  0  0  0  0  0  0  0  0  0  0  0
   -4.8297    1.9033    0.0000 O   0  0  0  0  0  0  0  0  0  0  0  0
   -5.8864    4.2767    0.0000 N   0  0  0  0  0  0  0  0  0  0  0  0
   -7.2567    3.6666    0.0000 C   0  0  0  0  0  0  0  0  0  0  0  0
   -8.4702    4.5483    0.0000 C   0  0  0  0  0  0  0  0  0  0  0  0
   -9.8406    3.9382    0.0000 C   0  0  0  0  0  0  0  0  0  0  0  0
  -11.0541    4.8199    0.0000 C   0  0  0  0  0  0  0  0  0  0  0  0
  -12.4244    4.2098    0.0000 C   0  0  0  0  0  0  0  0  0  0  0  0
  -12.5812    2.7180    0.0000 C   0  0  0  0  0  0  0  0  0  0  0  0
  -11.3677    1.8363    0.0000 C   0  0  0  0  0  0  0  0  0  0  0  0
   -9.9973    2.4464    0.0000 C   0  0  0  0  0  0  0  0  0  0  0  0
   -7.4135    2.1748    0.0000 C   0  0  0  0  0  0  0  0  0  0  0  0
   -6.2000    1.2931    0.0000 O   0  0  0  0  0  0  0  0  0  0  0  0
   -8.7838    1.5647    0.0000 N   0  0  0  0  0  0  0  0  0  0  0  0
   -8.9406    0.0729    0.0000 C   0  0  0  0  0  0  0  0  0  0  0  0
  -10.3109   -0.5372    0.0000 C   0  0  0  0  0  0  0  0  0  0  0  0
  -10.4677   -2.0290    0.0000 C   0  0  0  0  0  0  0  0  0  0  0  0
  -11.8380   -2.6391    0.0000 C   0  0  0  0  0  0  0  0  0  0  0  0
  -11.9948   -4.1308    0.0000 C   0  0  0  0  0  0  0  0  0  0  0  0
  -10.7813   -5.0125    0.0000 C   0  0  0  0  0  0  0  0  0  0  0  0
   -9.4110   -4.4024    0.0000 C   0  0  0  0  0  0  0  0  0  0  0  0
   -9.2542   -2.9106    0.0000 C   0  0  0  0  0  0  0  0  0  0  0  0
   -7.7271   -0.8087    0.0000 C   0  0  0  0  0  0  0  0  0  0  0  0
   -6.3568   -0.1986    0.0000 O   0  0  0  0  0  0  0  0  0  0  0  0
   -7.8839   -2.3005    0.0000 O   0  0  0  0  0  0  0  0  0  0  0  0
  1  2  1  0
  2  3  1  0
  2  4  1  0
  2  5  1  0
  5  6  1  0
  6  7  2  0
  6  8  1  0
  8  9  1  0
  9 10  1  0
 10 11  1  0
 11 12  1  0
 12 13  1  0
 13 14  1  0
 14 15  1  0
 15 16  1  0
 15 17  1  0
 17 18  1  0
 18 19  2  0
 18 20  1  0
 20 21  1  0
 21 22  1  0
 22 23  1  0
 23 24  2  0
 24 25  1  0
 25 26  2  0
 26 27  1  0
 27 28  2  0
 21 29  1  0
 29 30  2  0
 29 31  1  0
 31 32  1  0
 32 33  1  0
 33 34  1  0
 34 35  2  0
 35 36  1  0
 36 37  2  0
 37 38  1  0
 38 39  2  0
 32 40  1  0
 40 41  2  0
 40 42  1  0
 42 43  1  0
 43 44  1  0
 44 45  1  0
 45 46  2  0
 46 47  1  0
 47 48  2  0
 48 49  1  0
 49 50  2  0
 43 51  1  0
 51 52  2  0
 51 53  1  0
 16  8  1  0
 28 23  1  0
 39 34  1  0
 50 45  1  0
 17 12  1  0
M  END
>  <Title>  (142) 
idAAFLgen7

$$$$

     RDKit          2D

 48 52  0  0  0  0  0  0  0  0999 V2000
   -7.9140   11.2578    0.0000 C   0  0  0  0  0  0  0  0  0  0  0  0
   -7.9140    9.7578    0.0000 C   0  0  0  0  0  0  0  0  0  0  0  0
   -7.9140    8.2578    0.0000 C   0  0  0  0  0  0  0  0  0  0  0  0
   -9.4140    9.7578    0.0000 C   0  0  0  0  0  0  0  0  0  0  0  0
   -6.4140    9.7578    0.0000 C   0  0  0  0  0  0  0  0  0  0  0  0
   -5.6640    8.4587    0.0000 C   0  0  0  0  0  0  0  0  0  0  0  0
   -6.4140    7.1597    0.0000 N   0  0  0  0  0  0  0  0  0  0  0  0
   -5.6640    5.8606    0.0000 C   0  0  0  0  0  0  0  0  0  0  0  0
   -4.1640    5.8606    0.0000 O   0  0  0  0  0  0  0  0  0  0  0  0
   -6.4140    4.5616    0.0000 C   0  0  0  0  0  0  0  0  0  0  0  0
   -7.9140    4.5616    0.0000 C   0  0  0  0  0  0  0  0  0  0  0  0
   -8.6640    5.8606    0.0000 C   0  0  0  0  0  0  0  0  0  0  0  0
   -7.9140    7.1597    0.0000 C   0  0  0  0  0  0  0  0  0  0  0  0
   -8.6640    8.4587    0.0000 C   0  0  0  0  0  0  0  0  0  0  0  0
  -10.1640    8.4587    0.0000 C   0  0  0  0  0  0  0  0  0  0  0  0
  -10.9140    7.1597    0.0000 C   0  0  0  0  0  0  0  0  0  0  0  0
  -10.1640    5.8606    0.0000 C   0  0  0  0  0  0  0  0  0  0  0  0
   -5.6640    3.2626    0.0000 N   0  0  0  0  0  0  0  0  0  0  0  0
   -4.1640    3.2626    0.0000 C   0  0  0  0  0  0  0  0  0  0  0  0
   -3.4140    4.5616    0.0000 O   0  0  0  0  0  0  0  0  0  0  0  0
   -3.4140    1.9635    0.0000 O   0  0  0  0  0  0  0  0  0  0  0  0
   -1.9140    1.9635    0.0000 C   0  0  0  0  0  0  0  0  0  0  0  0
   -1.0323    3.1771    0.0000 C   0  0  0  0  0  0  0  0  0  0  0  0
    0.3943    2.7135    0.0000 O   0  0  0  0  0  0  0  0  0  0  0  0
    0.3943    1.2135    0.0000 C   0  0  0  0  0  0  0  0  0  0  0  0
    1.2760    0.0000    0.0000 O   0  0  0  0  0  0  0  0  0  0  0  0
    0.3943   -1.2135    0.0000 C   0  0  0  0  0  0  0  0  0  0  0  0
   -1.0323   -0.7500    0.0000 C   0  0  0  0  0  0  0  0  0  0  0  0
   -1.0323    0.7500    0.0000 C   0  0  0  0  0  0  0  0  0  0  0  0
   -4.1640    8.4587    0.0000 S   0  0  0  0  0  0  0  0  0  0  0  0
   -4.1640    9.9587    0.0000 O   0  0  0  0  0  0  0  0  0  0  0  0
   -4.1640    6.9587    0.0000 O   0  0  0  0  0  0  0  0  0  0  0  0
   -2.6640    8.4587    0.0000 C   0  0  0  0  0  0  0  0  0  0  0  0
   -1.9140    9.7578    0.0000 C   0  0  0  0  0  0  0  0  0  0  0  0
   -0.4140    9.7578    0.0000 C   0  0  0  0  0  0  0  0  0  0  0  0
    0.3360    8.4587    0.0000 C   0  0  0  0  0  0  0  0  0  0  0  0
    1.8360    8.4587    0.0000 N   0  0  0  0  0  0  0  0  0  0  0  0
    2.5860    9.7578    0.0000 C   0  0  0  0  0  0  0  0  0  0  0  0
    1.8360   11.0568    0.0000 O   0  0  0  0  0  0  0  0  0  0  0  0
    4.0860    9.7578    0.0000 C   0  0  0  0  0  0  0  0  0  0  0  0
    4.7369    8.4063    0.0000 C   0  0  0  0  0  0  0  0  0  0  0  0
    6.1993    8.0725    0.0000 C   0  0  0  0  0  0  0  0  0  0  0  0
    7.3720    9.0078    0.0000 C   0  0  0  0  0  0  0  0  0  0  0  0
    7.3720   10.5078    0.0000 C   0  0  0  0  0  0  0  0  0  0  0  0
    6.1993   11.4430    0.0000 C   0  0  0  0  0  0  0  0  0  0  0  0
    4.7369   11.1092    0.0000 C   0  0  0  0  0  0  0  0  0  0  0  0
   -0.4140    7.1597    0.0000 C   0  0  0  0  0  0  0  0  0  0  0  0
   -1.9140    7.1597    0.0000 C   0  0  0  0  0  0  0  0  0  0  0  0
  1  2  1  0
  2  3  1  0
  2  4  1  0
  2  5  1  0
  5  6  1  0
  6  7  1  0
  7  8  1  0
  8  9  2  0
  8 10  1  0
 10 11  1  0
 11 12  1  0
 12 13  2  0
 13 14  1  0
 14 15  2  0
 15 16  1  0
 16 17  2  0
 10 18  1  0
 18 19  1  0
 19 20  2  0
 19 21  1  0
 21 22  1  0
 22 23  1  0
 23 24  1  0
 24 25  1  0
 25 26  1  0
 26 27  1  0
 27 28  1  0
 28 29  1  0
  6 30  1  0
 30 31  2  0
 30 32  2  0
 30 33  1  0
 33 34  2  0
 34 35  1  0
 35 36  2  0
 36 37  1  0
 37 38  1  0
 38 39  2  0
 38 40  1  0
 40 41  1  0
 41 42  1  0
 42 43  1  0
 43 44  1  0
 44 45  1  0
 45 46  1  0
 36 47  1  0
 47 48  2  0
 17 12  1  0
 29 22  1  0
 48 33  1  0
 29 25  1  0
 46 40  1  0
M  END
>  <Title>  (143) 
idAAFMgen7

$$$$

     RDKit          2D

 37 42  0  0  0  0  0  0  0  0999 V2000
   -1.8760    4.4687    0.0000 O   0  0  0  0  0  0  0  0  0  0  0  0
   -3.2463    3.8586    0.0000 C   0  0  0  0  0  0  0  0  0  0  0  0
   -3.4031    2.3668    0.0000 N   0  0  0  0  0  0  0  0  0  0  0  0
   -2.1895    1.4851    0.0000 C   0  0  0  0  0  0  0  0  0  0  0  0
   -0.8192    2.0952    0.0000 C   0  0  0  0  0  0  0  0  0  0  0  0
    0.3943    1.2135    0.0000 C   0  0  0  0  0  0  0  0  0  0  0  0
    1.2760    0.0000    0.0000 C   0  0  0  0  0  0  0  0  0  0  0  0
    0.3943   -1.2135    0.0000 C   0  0  0  0  0  0  0  0  0  0  0  0
   -1.0323   -0.7500    0.0000 C   0  0  0  0  0  0  0  0  0  0  0  0
   -2.3463   -0.0067    0.0000 C   0  0  0  0  0  0  0  0  0  0  0  0
   -1.0323    0.7500    0.0000 N   0  0  0  0  0  0  0  0  0  0  0  0
   -2.2458    1.6317    0.0000 C   0  0  0  0  0  0  0  0  0  0  0  0
   -2.0890    3.1235    0.0000 C   0  0  0  0  0  0  0  0  0  0  0  0
   -3.3025    4.0051    0.0000 C   0  0  0  0  0  0  0  0  0  0  0  0
   -3.1458    5.4969    0.0000 C   0  0  0  0  0  0  0  0  0  0  0  0
   -4.3593    6.3786    0.0000 C   0  0  0  0  0  0  0  0  0  0  0  0
   -5.7296    5.7685    0.0000 C   0  0  0  0  0  0  0  0  0  0  0  0
   -6.9431    6.6502    0.0000 C   0  0  0  0  0  0  0  0  0  0  0  0
   -6.7863    8.1420    0.0000 C   0  0  0  0  0  0  0  0  0  0  0  0
   -7.9999    9.0236    0.0000 C   0  0  0  0  0  0  0  0  0  0  0  0
   -9.3702    8.4135    0.0000 C   0  0  0  0  0  0  0  0  0  0  0  0
   -9.5270    6.9217    0.0000 C   0  0  0  0  0  0  0  0  0  0  0  0
   -8.3134    6.0401    0.0000 N   0  0  0  0  0  0  0  0  0  0  0  0
   -5.8864    4.2767    0.0000 C   0  0  0  0  0  0  0  0  0  0  0  0
   -4.6729    3.3950    0.0000 C   0  0  0  0  0  0  0  0  0  0  0  0
   -4.4598    4.7402    0.0000 C   0  0  0  0  0  0  0  0  0  0  0  0
   -4.3030    6.2320    0.0000 C   0  0  0  0  0  0  0  0  0  0  0  0
   -5.5165    7.1137    0.0000 C   0  0  0  0  0  0  0  0  0  0  0  0
   -6.8869    6.5036    0.0000 C   0  0  0  0  0  0  0  0  0  0  0  0
   -8.1004    7.3853    0.0000 C   0  0  0  0  0  0  0  0  0  0  0  0
   -7.9436    8.8771    0.0000 C   0  0  0  0  0  0  0  0  0  0  0  0
   -9.1571    9.7587    0.0000 C   0  0  0  0  0  0  0  0  0  0  0  0
  -10.5274    9.1486    0.0000 C   0  0  0  0  0  0  0  0  0  0  0  0
  -10.6842    7.6568    0.0000 C   0  0  0  0  0  0  0  0  0  0  0  0
   -9.4707    6.7752    0.0000 N   0  0  0  0  0  0  0  0  0  0  0  0
   -7.0436    5.0118    0.0000 C   0  0  0  0  0  0  0  0  0  0  0  0
   -5.8301    4.1301    0.0000 C   0  0  0  0  0  0  0  0  0  0  0  0
  1  2  2  0
  2  3  1  0
  3  4  1  0
  4  5  1  0
  5  6  1  0
  6  7  1  0
  7  8  1  0
  8  9  1  0
  9 10  1  0
  9 11  1  0
 11 12  1  0
 12 13  1  0
 13 14  1  0
 14 15  2  0
 15 16  1  0
 16 17  2  0
 17 18  1  0
 18 19  2  0
 19 20  1  0
 20 21  2  0
 21 22  1  0
 22 23  2  0
 17 24  1  0
 24 25  2  0
  2 26  1  0
 26 27  2  0
 27 28  1  0
 28 29  2  0
 29 30  1  0
 30 31  2  0
 31 32  1  0
 32 33  2  0
 33 34  1  0
 34 35  2  0
 29 36  1  0
 36 37  2  0
 10  4  1  0
 25 14  1  0
 37 26  1  0
 11  6  1  0
 23 18  1  0
 35 30  1  0
M  END
>  <Title>  (144) 
idAAFNgen7

$$$$

     RDKit          2D

 33 35  0  0  0  0  0  0  0  0999 V2000
    5.9429    2.7990    0.0000 C   0  0  0  0  0  0  0  0  0  0  0  0
    5.9429    1.2990    0.0000 C   0  0  0  0  0  0  0  0  0  0  0  0
    5.9429   -0.2010    0.0000 C   0  0  0  0  0  0  0  0  0  0  0  0
    7.4429    1.2990    0.0000 C   0  0  0  0  0  0  0  0  0  0  0  0
    4.4429    1.2990    0.0000 C   0  0  0  0  0  0  0  0  0  0  0  0
    3.6929    0.0000    0.0000 C   0  0  0  0  0  0  0  0  0  0  0  0
    4.4429   -1.2990    0.0000 O   0  0  0  0  0  0  0  0  0  0  0  0
    2.1929    0.0000    0.0000 N   0  0  0  0  0  0  0  0  0  0  0  0
    1.6798    1.4095    0.0000 C   0  0  0  0  0  0  0  0  0  0  0  0
    0.3808    2.1595    0.0000 C   0  0  0  0  0  0  0  0  0  0  0  0
   -1.0964    1.8991    0.0000 O   0  0  0  0  0  0  0  0  0  0  0  0
   -2.0606    0.7500    0.0000 C   0  0  0  0  0  0  0  0  0  0  0  0
   -2.0606   -0.7500    0.0000 C   0  0  0  0  0  0  0  0  0  0  0  0
   -1.0964   -1.8991    0.0000 C   0  0  0  0  0  0  0  0  0  0  0  0
    0.3808   -2.1595    0.0000 C   0  0  0  0  0  0  0  0  0  0  0  0
    1.6798   -1.4095    0.0000 C   0  0  0  0  0  0  0  0  0  0  0  0
    3.1773   -1.4968    0.0000 C   0  0  0  0  0  0  0  0  0  0  0  0
    2.0257   -2.8691    0.0000 C   0  0  0  0  0  0  0  0  0  0  0  0
   -3.1344   -0.2974    0.0000 C   0  0  0  0  0  0  0  0  0  0  0  0
   -4.6228   -0.1108    0.0000 C   0  0  0  0  0  0  0  0  0  0  0  0
   -5.4366   -1.3709    0.0000 C   0  0  0  0  0  0  0  0  0  0  0  0
   -4.7523   -2.7057    0.0000 O   0  0  0  0  0  0  0  0  0  0  0  0
   -6.9347   -1.2961    0.0000 N   0  0  0  0  0  0  0  0  0  0  0  0
   -7.8758   -2.4642    0.0000 C   0  0  0  0  0  0  0  0  0  0  0  0
   -9.2775   -1.9301    0.0000 C   0  0  0  0  0  0  0  0  0  0  0  0
   -9.2027   -0.4320    0.0000 C   0  0  0  0  0  0  0  0  0  0  0  0
   -7.7548   -0.0401    0.0000 C   0  0  0  0  0  0  0  0  0  0  0  0
   -5.4049    1.1691    0.0000 C   0  0  0  0  0  0  0  0  0  0  0  0
   -4.8919    2.5786    0.0000 C   0  0  0  0  0  0  0  0  0  0  0  0
   -3.4700    3.0564    0.0000 C   0  0  0  0  0  0  0  0  0  0  0  0
   -2.2100    2.2425    0.0000 C   0  0  0  0  0  0  0  0  0  0  0  0
   -1.6969    3.6521    0.0000 C   0  0  0  0  0  0  0  0  0  0  0  0
   -1.4185    2.3378    0.0000 C   0  0  0  0  0  0  0  0  0  0  0  0
  1  2  1  0
  2  3  1  0
  2  4  1  0
  2  5  1  0
  5  6  1  0
  6  7  2  0
  6  8  1  0
  8  9  1  0
  9 10  1  0
 10 11  1  0
 11 12  1  0
 12 13  1  0
 13 14  1  0
 14 15  1  0
 15 16  1  0
 16 17  1  0
 16 18  1  0
 12 19  1  0
 19 20  1  0
 20 21  1  0
 21 22  2  0
 21 23  1  0
 23 24  1  0
 24 25  1  0
 25 26  1  0
 26 27  1  0
 20 28  1  0
 28 29  1  0
 29 30  1  0
 30 31  1  0
 31 32  1  0
 31 33  1  0
 16  8  1  0
 27 23  1  0
 31 12  1  0
M  END
>  <Title>  (145) 
idAAFOgen7

$$$$

     RDKit          2D

 58 63  0  0  0  0  0  0  0  0999 V2000
   -0.6149   13.1058    0.0000 C   0  0  0  0  0  0  0  0  0  0  0  0
   -1.9140   12.3558    0.0000 C   0  0  0  0  0  0  0  0  0  0  0  0
   -3.2130   11.6058    0.0000 C   0  0  0  0  0  0  0  0  0  0  0  0
   -2.6640   13.6549    0.0000 C   0  0  0  0  0  0  0  0  0  0  0  0
   -1.1640   11.0568    0.0000 C   0  0  0  0  0  0  0  0  0  0  0  0
   -1.9140    9.7578    0.0000 C   0  0  0  0  0  0  0  0  0  0  0  0
   -3.4140    9.7578    0.0000 N   0  0  0  0  0  0  0  0  0  0  0  0
   -4.1640    8.4587    0.0000 C   0  0  0  0  0  0  0  0  0  0  0  0
   -3.4140    7.1597    0.0000 O   0  0  0  0  0  0  0  0  0  0  0  0
   -5.6640    8.4587    0.0000 C   0  0  0  0  0  0  0  0  0  0  0  0
   -6.4140    9.7578    0.0000 C   0  0  0  0  0  0  0  0  0  0  0  0
   -5.6640   11.0568    0.0000 C   0  0  0  0  0  0  0  0  0  0  0  0
   -4.1640   11.0568    0.0000 C   0  0  0  0  0  0  0  0  0  0  0  0
   -3.4140   12.3558    0.0000 C   0  0  0  0  0  0  0  0  0  0  0  0
   -4.1640   13.6549    0.0000 C   0  0  0  0  0  0  0  0  0  0  0  0
   -5.6640   13.6549    0.0000 C   0  0  0  0  0  0  0  0  0  0  0  0
   -6.4140   12.3558    0.0000 C   0  0  0  0  0  0  0  0  0  0  0  0
   -6.4140    7.1597    0.0000 N   0  0  0  0  0  0  0  0  0  0  0  0
   -5.6640    5.8606    0.0000 C   0  0  0  0  0  0  0  0  0  0  0  0
   -4.1640    5.8606    0.0000 O   0  0  0  0  0  0  0  0  0  0  0  0
   -6.4140    4.5616    0.0000 C   0  0  0  0  0  0  0  0  0  0  0  0
   -7.9140    4.5616    0.0000 C   0  0  0  0  0  0  0  0  0  0  0  0
   -8.6640    5.8606    0.0000 C   0  0  0  0  0  0  0  0  0  0  0  0
   -7.9140    7.1597    0.0000 C   0  0  0  0  0  0  0  0  0  0  0  0
   -8.6640    8.4587    0.0000 C   0  0  0  0  0  0  0  0  0  0  0  0
  -10.1640    8.4587    0.0000 C   0  0  0  0  0  0  0  0  0  0  0  0
  -10.9140    7.1597    0.0000 C   0  0  0  0  0  0  0  0  0  0  0  0
  -10.1640    5.8606    0.0000 C   0  0  0  0  0  0  0  0  0  0  0  0
   -5.6640    3.2626    0.0000 N   0  0  0  0  0  0  0  0  0  0  0  0
   -4.1640    3.2626    0.0000 C   0  0  0  0  0  0  0  0  0  0  0  0
   -3.4140    4.5616    0.0000 O   0  0  0  0  0  0  0  0  0  0  0  0
   -3.4140    1.9635    0.0000 O   0  0  0  0  0  0  0  0  0  0  0  0
   -1.9140    1.9635    0.0000 C   0  0  0  0  0  0  0  0  0  0  0  0
   -1.0323    3.1771    0.0000 C   0  0  0  0  0  0  0  0  0  0  0  0
    0.3943    2.7135    0.0000 O   0  0  0  0  0  0  0  0  0  0  0  0
    0.3943    1.2135    0.0000 C   0  0  0  0  0  0  0  0  0  0  0  0
    1.2760    0.0000    0.0000 O   0  0  0  0  0  0  0  0  0  0  0  0
    0.3943   -1.2135    0.0000 C   0  0  0  0  0  0  0  0  0  0  0  0
   -1.0323   -0.7500    0.0000 C   0  0  0  0  0  0  0  0  0  0  0  0
   -1.0323    0.7500    0.0000 C   0  0  0  0  0  0  0  0  0  0  0  0
   -1.1640    8.4587    0.0000 S   0  0  0  0  0  0  0  0  0  0  0  0
   -2.4630    7.7087    0.0000 O   0  0  0  0  0  0  0  0  0  0  0  0
    0.1351    9.2087    0.0000 O   0  0  0  0  0  0  0  0  0  0  0  0
   -0.4140    7.1597    0.0000 C   0  0  0  0  0  0  0  0  0  0  0  0
   -1.1640    5.8606    0.0000 C   0  0  0  0  0  0  0  0  0  0  0  0
   -0.4140    4.5616    0.0000 C   0  0  0  0  0  0  0  0  0  0  0  0
    1.0860    4.5616    0.0000 C   0  0  0  0  0  0  0  0  0  0  0  0
    1.8360    3.2626    0.0000 N   0  0  0  0  0  0  0  0  0  0  0  0
    3.3360    3.2626    0.0000 C   0  0  0  0  0  0  0  0  0  0  0  0
    4.0860    4.5616    0.0000 O   0  0  0  0  0  0  0  0  0  0  0  0
    4.0860    1.9635    0.0000 C   0  0  0  0  0  0  0  0  0  0  0  0
    3.3360    0.6645    0.0000 C   0  0  0  0  0  0  0  0  0  0  0  0
    4.0860   -0.6346    0.0000 C   0  0  0  0  0  0  0  0  0  0  0  0
    5.5860   -0.6346    0.0000 C   0  0  0  0  0  0  0  0  0  0  0  0
    6.3360    0.6645    0.0000 C   0  0  0  0  0  0  0  0  0  0  0  0
    5.5860    1.9635    0.0000 N   0  0  0  0  0  0  0  0  0  0  0  0
    1.8360    5.8606    0.0000 C   0  0  0  0  0  0  0  0  0  0  0  0
    1.0860    7.1597    0.0000 C   0  0  0  0  0  0  0  0  0  0  0  0
  1  2  1  0
  2  3  1  0
  2  4  1  0
  2  5  1  0
  5  6  1  0
  6  7  1  0
  7  8  1  0
  8  9  2  0
  8 10  1  0
 10 11  1  0
 11 12  1  0
 12 13  2  0
 13 14  1  0
 14 15  2  0
 15 16  1  0
 16 17  2  0
 10 18  1  0
 18 19  1  0
 19 20  2  0
 19 21  1  0
 21 22  1  0
 22 23  1  0
 23 24  2  0
 24 25  1  0
 25 26  2  0
 26 27  1  0
 27 28  2  0
 21 29  1  0
 29 30  1  0
 30 31  2  0
 30 32  1  0
 32 33  1  0
 33 34  1  0
 34 35  1  0
 35 36  1  0
 36 37  1  0
 37 38  1  0
 38 39  1  0
 39 40  1  0
  6 41  1  0
 41 42  2  0
 41 43  2  0
 41 44  1  0
 44 45  2  0
 45 46  1  0
 46 47  2  0
 47 48  1  0
 48 49  1  0
 49 50  2  0
 49 51  1  0
 51 52  2  0
 52 53  1  0
 53 54  2  0
 54 55  1  0
 55 56  2  0
 47 57  1  0
 57 58  2  0
 17 12  1  0
 28 23  1  0
 40 33  1  0
 58 44  1  0
 40 36  1  0
 56 51  1  0
M  END
>  <Title>  (146) 
idAAFPgen7

$$$$

     RDKit          2D

 43 49  0  0  0  0  0  0  0  0999 V2000
   -6.4573   -1.8370    0.0000 N   0  0  0  0  0  0  0  0  0  0  0  0
   -5.0870   -1.2269    0.0000 C   0  0  0  0  0  0  0  0  0  0  0  0
   -3.8734   -2.1086    0.0000 O   0  0  0  0  0  0  0  0  0  0  0  0
   -4.9302    0.2649    0.0000 C   0  0  0  0  0  0  0  0  0  0  0  0
   -6.1437    1.1466    0.0000 C   0  0  0  0  0  0  0  0  0  0  0  0
   -5.9869    2.6383    0.0000 C   0  0  0  0  0  0  0  0  0  0  0  0
   -4.6166    3.2485    0.0000 C   0  0  0  0  0  0  0  0  0  0  0  0
   -4.4598    4.7402    0.0000 C   0  0  0  0  0  0  0  0  0  0  0  0
   -3.2778    5.6638    0.0000 O   0  0  0  0  0  0  0  0  0  0  0  0
   -5.6733    5.6219    0.0000 C   0  0  0  0  0  0  0  0  0  0  0  0
   -7.0436    5.0118    0.0000 C   0  0  0  0  0  0  0  0  0  0  0  0
   -5.8301    4.1301    0.0000 C   0  0  0  0  0  0  0  0  0  0  0  0
   -4.4598    4.7402    0.0000 C   0  0  0  0  0  0  0  0  0  0  0  0
   -3.2463    3.8586    0.0000 C   0  0  0  0  0  0  0  0  0  0  0  0
   -1.8760    4.4687    0.0000 O   0  0  0  0  0  0  0  0  0  0  0  0
   -3.4031    2.3668    0.0000 N   0  0  0  0  0  0  0  0  0  0  0  0
   -2.1895    1.4851    0.0000 C   0  0  0  0  0  0  0  0  0  0  0  0
   -0.8192    2.0952    0.0000 C   0  0  0  0  0  0  0  0  0  0  0  0
    0.3943    1.2135    0.0000 C   0  0  0  0  0  0  0  0  0  0  0  0
    1.2760    0.0000    0.0000 C   0  0  0  0  0  0  0  0  0  0  0  0
    0.3943   -1.2135    0.0000 C   0  0  0  0  0  0  0  0  0  0  0  0
   -1.0323   -0.7500    0.0000 C   0  0  0  0  0  0  0  0  0  0  0  0
   -2.3463   -0.0067    0.0000 C   0  0  0  0  0  0  0  0  0  0  0  0
   -1.0323    0.7500    0.0000 N   0  0  0  0  0  0  0  0  0  0  0  0
   -2.2458    1.6317    0.0000 C   0  0  0  0  0  0  0  0  0  0  0  0
   -2.0890    3.1235    0.0000 C   0  0  0  0  0  0  0  0  0  0  0  0
   -3.3025    4.0051    0.0000 C   0  0  0  0  0  0  0  0  0  0  0  0
   -3.1458    5.4969    0.0000 C   0  0  0  0  0  0  0  0  0  0  0  0
   -4.3593    6.3786    0.0000 C   0  0  0  0  0  0  0  0  0  0  0  0
   -5.7296    5.7685    0.0000 C   0  0  0  0  0  0  0  0  0  0  0  0
   -6.9431    6.6502    0.0000 C   0  0  0  0  0  0  0  0  0  0  0  0
   -6.7863    8.1420    0.0000 C   0  0  0  0  0  0  0  0  0  0  0  0
   -7.9999    9.0236    0.0000 C   0  0  0  0  0  0  0  0  0  0  0  0
   -9.3702    8.4135    0.0000 C   0  0  0  0  0  0  0  0  0  0  0  0
   -9.5270    6.9217    0.0000 C   0  0  0  0  0  0  0  0  0  0  0  0
   -8.3134    6.0401    0.0000 N   0  0  0  0  0  0  0  0  0  0  0  0
   -5.8864    4.2767    0.0000 C   0  0  0  0  0  0  0  0  0  0  0  0
   -4.6729    3.3950    0.0000 C   0  0  0  0  0  0  0  0  0  0  0  0
   -4.3030    6.2320    0.0000 C   0  0  0  0  0  0  0  0  0  0  0  0
   -5.5165    7.1137    0.0000 C   0  0  0  0  0  0  0  0  0  0  0  0
   -6.8869    6.5036    0.0000 C   0  0  0  0  0  0  0  0  0  0  0  0
   -3.4031    2.3668    0.0000 C   0  0  0  0  0  0  0  0  0  0  0  0
   -3.5599    0.8750    0.0000 C   0  0  0  0  0  0  0  0  0  0  0  0
  1  2  1  0
  2  3  2  0
  2  4  1  0
  4  5  2  0
  5  6  1  0
  6  7  2  0
  7  8  1  0
  8  9  2  0
  8 10  1  0
 10 11  1  0
 11 12  1  0
 12 13  1  0
 13 14  1  0
 14 15  2  0
 14 16  1  0
 16 17  1  0
 17 18  1  0
 18 19  1  0
 19 20  1  0
 20 21  1  0
 21 22  1  0
 22 23  1  0
 22 24  1  0
 24 25  1  0
 25 26  1  0
 26 27  1  0
 27 28  2  0
 28 29  1  0
 29 30  2  0
 30 31  1  0
 31 32  2  0
 32 33  1  0
 33 34  2  0
 34 35  1  0
 35 36  2  0
 30 37  1  0
 37 38  2  0
 13 39  1  0
 39 40  1  0
 40 41  1  0
  7 42  1  0
 42 43  2  0
 43  4  1  0
 40 10  1  0
 41 11  1  0
 23 17  1  0
 38 27  1  0
 24 19  1  0
 36 31  1  0
M  END
>  <Title>  (147) 
idAAFQgen7

$$$$
